# CMAKE generated file: DO NOT EDIT!
# Generated by "Unix Makefiles" Generator, CMake Version 3.16

# Delete rule output on recipe failure.
.DELETE_ON_ERROR:


#=============================================================================
# Special targets provided by cmake.

# Disable implicit rules so canonical targets will work.
.SUFFIXES:


# Remove some rules from gmake that .SUFFIXES does not remove.
SUFFIXES =

.SUFFIXES: .hpux_make_needs_suffix_list


# Suppress display of executed commands.
$(VERBOSE).SILENT:


# A target that is always out of date.
cmake_force:

.PHONY : cmake_force

#=============================================================================
# Set environment variables for the build.

# The shell in which to execute make rules.
SHELL = /bin/sh

# The CMake executable.
CMAKE_COMMAND = /usr/bin/cmake

# The command to remove a file.
RM = /usr/bin/cmake -E remove -f

# Escaping for special characters.
EQUALS = =

# The top-level source directory on which CMake was run.
CMAKE_SOURCE_DIR = /home/prashant/Documents/Git/ForkDSPH/DualSPHysics/src/source

# The top-level build directory on which CMake was run.
CMAKE_BINARY_DIR = /home/prashant/Documents/Git/ForkDSPH/DualSPHysics/src/build-source-Imported_Kit-Debug

# Include any dependencies generated for this target.
include CMakeFiles/DualSPHysics5.0CPU_linux64.dir/depend.make

# Include the progress variables for this target.
include CMakeFiles/DualSPHysics5.0CPU_linux64.dir/progress.make

# Include the compile flags for this target's objects.
include CMakeFiles/DualSPHysics5.0CPU_linux64.dir/flags.make

CMakeFiles/DualSPHysics5.0CPU_linux64.dir/JXml.cpp.o: CMakeFiles/DualSPHysics5.0CPU_linux64.dir/flags.make
CMakeFiles/DualSPHysics5.0CPU_linux64.dir/JXml.cpp.o: /home/prashant/Documents/Git/ForkDSPH/DualSPHysics/src/source/JXml.cpp
	@$(CMAKE_COMMAND) -E cmake_echo_color --switch=$(COLOR) --green --progress-dir=/home/prashant/Documents/Git/ForkDSPH/DualSPHysics/src/build-source-Imported_Kit-Debug/CMakeFiles --progress-num=$(CMAKE_PROGRESS_1) "Building CXX object CMakeFiles/DualSPHysics5.0CPU_linux64.dir/JXml.cpp.o"
	/usr/bin/g++-7  $(CXX_DEFINES) $(CXX_INCLUDES) $(CXX_FLAGS) -o CMakeFiles/DualSPHysics5.0CPU_linux64.dir/JXml.cpp.o -c /home/prashant/Documents/Git/ForkDSPH/DualSPHysics/src/source/JXml.cpp

CMakeFiles/DualSPHysics5.0CPU_linux64.dir/JXml.cpp.i: cmake_force
	@$(CMAKE_COMMAND) -E cmake_echo_color --switch=$(COLOR) --green "Preprocessing CXX source to CMakeFiles/DualSPHysics5.0CPU_linux64.dir/JXml.cpp.i"
	/usr/bin/g++-7 $(CXX_DEFINES) $(CXX_INCLUDES) $(CXX_FLAGS) -E /home/prashant/Documents/Git/ForkDSPH/DualSPHysics/src/source/JXml.cpp > CMakeFiles/DualSPHysics5.0CPU_linux64.dir/JXml.cpp.i

CMakeFiles/DualSPHysics5.0CPU_linux64.dir/JXml.cpp.s: cmake_force
	@$(CMAKE_COMMAND) -E cmake_echo_color --switch=$(COLOR) --green "Compiling CXX source to assembly CMakeFiles/DualSPHysics5.0CPU_linux64.dir/JXml.cpp.s"
	/usr/bin/g++-7 $(CXX_DEFINES) $(CXX_INCLUDES) $(CXX_FLAGS) -S /home/prashant/Documents/Git/ForkDSPH/DualSPHysics/src/source/JXml.cpp -o CMakeFiles/DualSPHysics5.0CPU_linux64.dir/JXml.cpp.s

CMakeFiles/DualSPHysics5.0CPU_linux64.dir/tinystr.cpp.o: CMakeFiles/DualSPHysics5.0CPU_linux64.dir/flags.make
CMakeFiles/DualSPHysics5.0CPU_linux64.dir/tinystr.cpp.o: /home/prashant/Documents/Git/ForkDSPH/DualSPHysics/src/source/tinystr.cpp
	@$(CMAKE_COMMAND) -E cmake_echo_color --switch=$(COLOR) --green --progress-dir=/home/prashant/Documents/Git/ForkDSPH/DualSPHysics/src/build-source-Imported_Kit-Debug/CMakeFiles --progress-num=$(CMAKE_PROGRESS_2) "Building CXX object CMakeFiles/DualSPHysics5.0CPU_linux64.dir/tinystr.cpp.o"
	/usr/bin/g++-7  $(CXX_DEFINES) $(CXX_INCLUDES) $(CXX_FLAGS) -o CMakeFiles/DualSPHysics5.0CPU_linux64.dir/tinystr.cpp.o -c /home/prashant/Documents/Git/ForkDSPH/DualSPHysics/src/source/tinystr.cpp

CMakeFiles/DualSPHysics5.0CPU_linux64.dir/tinystr.cpp.i: cmake_force
	@$(CMAKE_COMMAND) -E cmake_echo_color --switch=$(COLOR) --green "Preprocessing CXX source to CMakeFiles/DualSPHysics5.0CPU_linux64.dir/tinystr.cpp.i"
	/usr/bin/g++-7 $(CXX_DEFINES) $(CXX_INCLUDES) $(CXX_FLAGS) -E /home/prashant/Documents/Git/ForkDSPH/DualSPHysics/src/source/tinystr.cpp > CMakeFiles/DualSPHysics5.0CPU_linux64.dir/tinystr.cpp.i

CMakeFiles/DualSPHysics5.0CPU_linux64.dir/tinystr.cpp.s: cmake_force
	@$(CMAKE_COMMAND) -E cmake_echo_color --switch=$(COLOR) --green "Compiling CXX source to assembly CMakeFiles/DualSPHysics5.0CPU_linux64.dir/tinystr.cpp.s"
	/usr/bin/g++-7 $(CXX_DEFINES) $(CXX_INCLUDES) $(CXX_FLAGS) -S /home/prashant/Documents/Git/ForkDSPH/DualSPHysics/src/source/tinystr.cpp -o CMakeFiles/DualSPHysics5.0CPU_linux64.dir/tinystr.cpp.s

CMakeFiles/DualSPHysics5.0CPU_linux64.dir/tinyxml.cpp.o: CMakeFiles/DualSPHysics5.0CPU_linux64.dir/flags.make
CMakeFiles/DualSPHysics5.0CPU_linux64.dir/tinyxml.cpp.o: /home/prashant/Documents/Git/ForkDSPH/DualSPHysics/src/source/tinyxml.cpp
	@$(CMAKE_COMMAND) -E cmake_echo_color --switch=$(COLOR) --green --progress-dir=/home/prashant/Documents/Git/ForkDSPH/DualSPHysics/src/build-source-Imported_Kit-Debug/CMakeFiles --progress-num=$(CMAKE_PROGRESS_3) "Building CXX object CMakeFiles/DualSPHysics5.0CPU_linux64.dir/tinyxml.cpp.o"
	/usr/bin/g++-7  $(CXX_DEFINES) $(CXX_INCLUDES) $(CXX_FLAGS) -o CMakeFiles/DualSPHysics5.0CPU_linux64.dir/tinyxml.cpp.o -c /home/prashant/Documents/Git/ForkDSPH/DualSPHysics/src/source/tinyxml.cpp

CMakeFiles/DualSPHysics5.0CPU_linux64.dir/tinyxml.cpp.i: cmake_force
	@$(CMAKE_COMMAND) -E cmake_echo_color --switch=$(COLOR) --green "Preprocessing CXX source to CMakeFiles/DualSPHysics5.0CPU_linux64.dir/tinyxml.cpp.i"
	/usr/bin/g++-7 $(CXX_DEFINES) $(CXX_INCLUDES) $(CXX_FLAGS) -E /home/prashant/Documents/Git/ForkDSPH/DualSPHysics/src/source/tinyxml.cpp > CMakeFiles/DualSPHysics5.0CPU_linux64.dir/tinyxml.cpp.i

CMakeFiles/DualSPHysics5.0CPU_linux64.dir/tinyxml.cpp.s: cmake_force
	@$(CMAKE_COMMAND) -E cmake_echo_color --switch=$(COLOR) --green "Compiling CXX source to assembly CMakeFiles/DualSPHysics5.0CPU_linux64.dir/tinyxml.cpp.s"
	/usr/bin/g++-7 $(CXX_DEFINES) $(CXX_INCLUDES) $(CXX_FLAGS) -S /home/prashant/Documents/Git/ForkDSPH/DualSPHysics/src/source/tinyxml.cpp -o CMakeFiles/DualSPHysics5.0CPU_linux64.dir/tinyxml.cpp.s

CMakeFiles/DualSPHysics5.0CPU_linux64.dir/tinyxmlerror.cpp.o: CMakeFiles/DualSPHysics5.0CPU_linux64.dir/flags.make
CMakeFiles/DualSPHysics5.0CPU_linux64.dir/tinyxmlerror.cpp.o: /home/prashant/Documents/Git/ForkDSPH/DualSPHysics/src/source/tinyxmlerror.cpp
	@$(CMAKE_COMMAND) -E cmake_echo_color --switch=$(COLOR) --green --progress-dir=/home/prashant/Documents/Git/ForkDSPH/DualSPHysics/src/build-source-Imported_Kit-Debug/CMakeFiles --progress-num=$(CMAKE_PROGRESS_4) "Building CXX object CMakeFiles/DualSPHysics5.0CPU_linux64.dir/tinyxmlerror.cpp.o"
	/usr/bin/g++-7  $(CXX_DEFINES) $(CXX_INCLUDES) $(CXX_FLAGS) -o CMakeFiles/DualSPHysics5.0CPU_linux64.dir/tinyxmlerror.cpp.o -c /home/prashant/Documents/Git/ForkDSPH/DualSPHysics/src/source/tinyxmlerror.cpp

CMakeFiles/DualSPHysics5.0CPU_linux64.dir/tinyxmlerror.cpp.i: cmake_force
	@$(CMAKE_COMMAND) -E cmake_echo_color --switch=$(COLOR) --green "Preprocessing CXX source to CMakeFiles/DualSPHysics5.0CPU_linux64.dir/tinyxmlerror.cpp.i"
	/usr/bin/g++-7 $(CXX_DEFINES) $(CXX_INCLUDES) $(CXX_FLAGS) -E /home/prashant/Documents/Git/ForkDSPH/DualSPHysics/src/source/tinyxmlerror.cpp > CMakeFiles/DualSPHysics5.0CPU_linux64.dir/tinyxmlerror.cpp.i

CMakeFiles/DualSPHysics5.0CPU_linux64.dir/tinyxmlerror.cpp.s: cmake_force
	@$(CMAKE_COMMAND) -E cmake_echo_color --switch=$(COLOR) --green "Compiling CXX source to assembly CMakeFiles/DualSPHysics5.0CPU_linux64.dir/tinyxmlerror.cpp.s"
	/usr/bin/g++-7 $(CXX_DEFINES) $(CXX_INCLUDES) $(CXX_FLAGS) -S /home/prashant/Documents/Git/ForkDSPH/DualSPHysics/src/source/tinyxmlerror.cpp -o CMakeFiles/DualSPHysics5.0CPU_linux64.dir/tinyxmlerror.cpp.s

CMakeFiles/DualSPHysics5.0CPU_linux64.dir/tinyxmlparser.cpp.o: CMakeFiles/DualSPHysics5.0CPU_linux64.dir/flags.make
CMakeFiles/DualSPHysics5.0CPU_linux64.dir/tinyxmlparser.cpp.o: /home/prashant/Documents/Git/ForkDSPH/DualSPHysics/src/source/tinyxmlparser.cpp
	@$(CMAKE_COMMAND) -E cmake_echo_color --switch=$(COLOR) --green --progress-dir=/home/prashant/Documents/Git/ForkDSPH/DualSPHysics/src/build-source-Imported_Kit-Debug/CMakeFiles --progress-num=$(CMAKE_PROGRESS_5) "Building CXX object CMakeFiles/DualSPHysics5.0CPU_linux64.dir/tinyxmlparser.cpp.o"
	/usr/bin/g++-7  $(CXX_DEFINES) $(CXX_INCLUDES) $(CXX_FLAGS) -o CMakeFiles/DualSPHysics5.0CPU_linux64.dir/tinyxmlparser.cpp.o -c /home/prashant/Documents/Git/ForkDSPH/DualSPHysics/src/source/tinyxmlparser.cpp

CMakeFiles/DualSPHysics5.0CPU_linux64.dir/tinyxmlparser.cpp.i: cmake_force
	@$(CMAKE_COMMAND) -E cmake_echo_color --switch=$(COLOR) --green "Preprocessing CXX source to CMakeFiles/DualSPHysics5.0CPU_linux64.dir/tinyxmlparser.cpp.i"
	/usr/bin/g++-7 $(CXX_DEFINES) $(CXX_INCLUDES) $(CXX_FLAGS) -E /home/prashant/Documents/Git/ForkDSPH/DualSPHysics/src/source/tinyxmlparser.cpp > CMakeFiles/DualSPHysics5.0CPU_linux64.dir/tinyxmlparser.cpp.i

CMakeFiles/DualSPHysics5.0CPU_linux64.dir/tinyxmlparser.cpp.s: cmake_force
	@$(CMAKE_COMMAND) -E cmake_echo_color --switch=$(COLOR) --green "Compiling CXX source to assembly CMakeFiles/DualSPHysics5.0CPU_linux64.dir/tinyxmlparser.cpp.s"
	/usr/bin/g++-7 $(CXX_DEFINES) $(CXX_INCLUDES) $(CXX_FLAGS) -S /home/prashant/Documents/Git/ForkDSPH/DualSPHysics/src/source/tinyxmlparser.cpp -o CMakeFiles/DualSPHysics5.0CPU_linux64.dir/tinyxmlparser.cpp.s

CMakeFiles/DualSPHysics5.0CPU_linux64.dir/JMotion.cpp.o: CMakeFiles/DualSPHysics5.0CPU_linux64.dir/flags.make
CMakeFiles/DualSPHysics5.0CPU_linux64.dir/JMotion.cpp.o: /home/prashant/Documents/Git/ForkDSPH/DualSPHysics/src/source/JMotion.cpp
	@$(CMAKE_COMMAND) -E cmake_echo_color --switch=$(COLOR) --green --progress-dir=/home/prashant/Documents/Git/ForkDSPH/DualSPHysics/src/build-source-Imported_Kit-Debug/CMakeFiles --progress-num=$(CMAKE_PROGRESS_6) "Building CXX object CMakeFiles/DualSPHysics5.0CPU_linux64.dir/JMotion.cpp.o"
	/usr/bin/g++-7  $(CXX_DEFINES) $(CXX_INCLUDES) $(CXX_FLAGS) -o CMakeFiles/DualSPHysics5.0CPU_linux64.dir/JMotion.cpp.o -c /home/prashant/Documents/Git/ForkDSPH/DualSPHysics/src/source/JMotion.cpp

CMakeFiles/DualSPHysics5.0CPU_linux64.dir/JMotion.cpp.i: cmake_force
	@$(CMAKE_COMMAND) -E cmake_echo_color --switch=$(COLOR) --green "Preprocessing CXX source to CMakeFiles/DualSPHysics5.0CPU_linux64.dir/JMotion.cpp.i"
	/usr/bin/g++-7 $(CXX_DEFINES) $(CXX_INCLUDES) $(CXX_FLAGS) -E /home/prashant/Documents/Git/ForkDSPH/DualSPHysics/src/source/JMotion.cpp > CMakeFiles/DualSPHysics5.0CPU_linux64.dir/JMotion.cpp.i

CMakeFiles/DualSPHysics5.0CPU_linux64.dir/JMotion.cpp.s: cmake_force
	@$(CMAKE_COMMAND) -E cmake_echo_color --switch=$(COLOR) --green "Compiling CXX source to assembly CMakeFiles/DualSPHysics5.0CPU_linux64.dir/JMotion.cpp.s"
	/usr/bin/g++-7 $(CXX_DEFINES) $(CXX_INCLUDES) $(CXX_FLAGS) -S /home/prashant/Documents/Git/ForkDSPH/DualSPHysics/src/source/JMotion.cpp -o CMakeFiles/DualSPHysics5.0CPU_linux64.dir/JMotion.cpp.s

CMakeFiles/DualSPHysics5.0CPU_linux64.dir/JMotionList.cpp.o: CMakeFiles/DualSPHysics5.0CPU_linux64.dir/flags.make
CMakeFiles/DualSPHysics5.0CPU_linux64.dir/JMotionList.cpp.o: /home/prashant/Documents/Git/ForkDSPH/DualSPHysics/src/source/JMotionList.cpp
	@$(CMAKE_COMMAND) -E cmake_echo_color --switch=$(COLOR) --green --progress-dir=/home/prashant/Documents/Git/ForkDSPH/DualSPHysics/src/build-source-Imported_Kit-Debug/CMakeFiles --progress-num=$(CMAKE_PROGRESS_7) "Building CXX object CMakeFiles/DualSPHysics5.0CPU_linux64.dir/JMotionList.cpp.o"
	/usr/bin/g++-7  $(CXX_DEFINES) $(CXX_INCLUDES) $(CXX_FLAGS) -o CMakeFiles/DualSPHysics5.0CPU_linux64.dir/JMotionList.cpp.o -c /home/prashant/Documents/Git/ForkDSPH/DualSPHysics/src/source/JMotionList.cpp

CMakeFiles/DualSPHysics5.0CPU_linux64.dir/JMotionList.cpp.i: cmake_force
	@$(CMAKE_COMMAND) -E cmake_echo_color --switch=$(COLOR) --green "Preprocessing CXX source to CMakeFiles/DualSPHysics5.0CPU_linux64.dir/JMotionList.cpp.i"
	/usr/bin/g++-7 $(CXX_DEFINES) $(CXX_INCLUDES) $(CXX_FLAGS) -E /home/prashant/Documents/Git/ForkDSPH/DualSPHysics/src/source/JMotionList.cpp > CMakeFiles/DualSPHysics5.0CPU_linux64.dir/JMotionList.cpp.i

CMakeFiles/DualSPHysics5.0CPU_linux64.dir/JMotionList.cpp.s: cmake_force
	@$(CMAKE_COMMAND) -E cmake_echo_color --switch=$(COLOR) --green "Compiling CXX source to assembly CMakeFiles/DualSPHysics5.0CPU_linux64.dir/JMotionList.cpp.s"
	/usr/bin/g++-7 $(CXX_DEFINES) $(CXX_INCLUDES) $(CXX_FLAGS) -S /home/prashant/Documents/Git/ForkDSPH/DualSPHysics/src/source/JMotionList.cpp -o CMakeFiles/DualSPHysics5.0CPU_linux64.dir/JMotionList.cpp.s

CMakeFiles/DualSPHysics5.0CPU_linux64.dir/JMotionMov.cpp.o: CMakeFiles/DualSPHysics5.0CPU_linux64.dir/flags.make
CMakeFiles/DualSPHysics5.0CPU_linux64.dir/JMotionMov.cpp.o: /home/prashant/Documents/Git/ForkDSPH/DualSPHysics/src/source/JMotionMov.cpp
	@$(CMAKE_COMMAND) -E cmake_echo_color --switch=$(COLOR) --green --progress-dir=/home/prashant/Documents/Git/ForkDSPH/DualSPHysics/src/build-source-Imported_Kit-Debug/CMakeFiles --progress-num=$(CMAKE_PROGRESS_8) "Building CXX object CMakeFiles/DualSPHysics5.0CPU_linux64.dir/JMotionMov.cpp.o"
	/usr/bin/g++-7  $(CXX_DEFINES) $(CXX_INCLUDES) $(CXX_FLAGS) -o CMakeFiles/DualSPHysics5.0CPU_linux64.dir/JMotionMov.cpp.o -c /home/prashant/Documents/Git/ForkDSPH/DualSPHysics/src/source/JMotionMov.cpp

CMakeFiles/DualSPHysics5.0CPU_linux64.dir/JMotionMov.cpp.i: cmake_force
	@$(CMAKE_COMMAND) -E cmake_echo_color --switch=$(COLOR) --green "Preprocessing CXX source to CMakeFiles/DualSPHysics5.0CPU_linux64.dir/JMotionMov.cpp.i"
	/usr/bin/g++-7 $(CXX_DEFINES) $(CXX_INCLUDES) $(CXX_FLAGS) -E /home/prashant/Documents/Git/ForkDSPH/DualSPHysics/src/source/JMotionMov.cpp > CMakeFiles/DualSPHysics5.0CPU_linux64.dir/JMotionMov.cpp.i

CMakeFiles/DualSPHysics5.0CPU_linux64.dir/JMotionMov.cpp.s: cmake_force
	@$(CMAKE_COMMAND) -E cmake_echo_color --switch=$(COLOR) --green "Compiling CXX source to assembly CMakeFiles/DualSPHysics5.0CPU_linux64.dir/JMotionMov.cpp.s"
	/usr/bin/g++-7 $(CXX_DEFINES) $(CXX_INCLUDES) $(CXX_FLAGS) -S /home/prashant/Documents/Git/ForkDSPH/DualSPHysics/src/source/JMotionMov.cpp -o CMakeFiles/DualSPHysics5.0CPU_linux64.dir/JMotionMov.cpp.s

CMakeFiles/DualSPHysics5.0CPU_linux64.dir/JMotionObj.cpp.o: CMakeFiles/DualSPHysics5.0CPU_linux64.dir/flags.make
CMakeFiles/DualSPHysics5.0CPU_linux64.dir/JMotionObj.cpp.o: /home/prashant/Documents/Git/ForkDSPH/DualSPHysics/src/source/JMotionObj.cpp
	@$(CMAKE_COMMAND) -E cmake_echo_color --switch=$(COLOR) --green --progress-dir=/home/prashant/Documents/Git/ForkDSPH/DualSPHysics/src/build-source-Imported_Kit-Debug/CMakeFiles --progress-num=$(CMAKE_PROGRESS_9) "Building CXX object CMakeFiles/DualSPHysics5.0CPU_linux64.dir/JMotionObj.cpp.o"
	/usr/bin/g++-7  $(CXX_DEFINES) $(CXX_INCLUDES) $(CXX_FLAGS) -o CMakeFiles/DualSPHysics5.0CPU_linux64.dir/JMotionObj.cpp.o -c /home/prashant/Documents/Git/ForkDSPH/DualSPHysics/src/source/JMotionObj.cpp

CMakeFiles/DualSPHysics5.0CPU_linux64.dir/JMotionObj.cpp.i: cmake_force
	@$(CMAKE_COMMAND) -E cmake_echo_color --switch=$(COLOR) --green "Preprocessing CXX source to CMakeFiles/DualSPHysics5.0CPU_linux64.dir/JMotionObj.cpp.i"
	/usr/bin/g++-7 $(CXX_DEFINES) $(CXX_INCLUDES) $(CXX_FLAGS) -E /home/prashant/Documents/Git/ForkDSPH/DualSPHysics/src/source/JMotionObj.cpp > CMakeFiles/DualSPHysics5.0CPU_linux64.dir/JMotionObj.cpp.i

CMakeFiles/DualSPHysics5.0CPU_linux64.dir/JMotionObj.cpp.s: cmake_force
	@$(CMAKE_COMMAND) -E cmake_echo_color --switch=$(COLOR) --green "Compiling CXX source to assembly CMakeFiles/DualSPHysics5.0CPU_linux64.dir/JMotionObj.cpp.s"
	/usr/bin/g++-7 $(CXX_DEFINES) $(CXX_INCLUDES) $(CXX_FLAGS) -S /home/prashant/Documents/Git/ForkDSPH/DualSPHysics/src/source/JMotionObj.cpp -o CMakeFiles/DualSPHysics5.0CPU_linux64.dir/JMotionObj.cpp.s

CMakeFiles/DualSPHysics5.0CPU_linux64.dir/JMotionPos.cpp.o: CMakeFiles/DualSPHysics5.0CPU_linux64.dir/flags.make
CMakeFiles/DualSPHysics5.0CPU_linux64.dir/JMotionPos.cpp.o: /home/prashant/Documents/Git/ForkDSPH/DualSPHysics/src/source/JMotionPos.cpp
	@$(CMAKE_COMMAND) -E cmake_echo_color --switch=$(COLOR) --green --progress-dir=/home/prashant/Documents/Git/ForkDSPH/DualSPHysics/src/build-source-Imported_Kit-Debug/CMakeFiles --progress-num=$(CMAKE_PROGRESS_10) "Building CXX object CMakeFiles/DualSPHysics5.0CPU_linux64.dir/JMotionPos.cpp.o"
	/usr/bin/g++-7  $(CXX_DEFINES) $(CXX_INCLUDES) $(CXX_FLAGS) -o CMakeFiles/DualSPHysics5.0CPU_linux64.dir/JMotionPos.cpp.o -c /home/prashant/Documents/Git/ForkDSPH/DualSPHysics/src/source/JMotionPos.cpp

CMakeFiles/DualSPHysics5.0CPU_linux64.dir/JMotionPos.cpp.i: cmake_force
	@$(CMAKE_COMMAND) -E cmake_echo_color --switch=$(COLOR) --green "Preprocessing CXX source to CMakeFiles/DualSPHysics5.0CPU_linux64.dir/JMotionPos.cpp.i"
	/usr/bin/g++-7 $(CXX_DEFINES) $(CXX_INCLUDES) $(CXX_FLAGS) -E /home/prashant/Documents/Git/ForkDSPH/DualSPHysics/src/source/JMotionPos.cpp > CMakeFiles/DualSPHysics5.0CPU_linux64.dir/JMotionPos.cpp.i

CMakeFiles/DualSPHysics5.0CPU_linux64.dir/JMotionPos.cpp.s: cmake_force
	@$(CMAKE_COMMAND) -E cmake_echo_color --switch=$(COLOR) --green "Compiling CXX source to assembly CMakeFiles/DualSPHysics5.0CPU_linux64.dir/JMotionPos.cpp.s"
	/usr/bin/g++-7 $(CXX_DEFINES) $(CXX_INCLUDES) $(CXX_FLAGS) -S /home/prashant/Documents/Git/ForkDSPH/DualSPHysics/src/source/JMotionPos.cpp -o CMakeFiles/DualSPHysics5.0CPU_linux64.dir/JMotionPos.cpp.s

CMakeFiles/DualSPHysics5.0CPU_linux64.dir/JDsMotion.cpp.o: CMakeFiles/DualSPHysics5.0CPU_linux64.dir/flags.make
CMakeFiles/DualSPHysics5.0CPU_linux64.dir/JDsMotion.cpp.o: /home/prashant/Documents/Git/ForkDSPH/DualSPHysics/src/source/JDsMotion.cpp
	@$(CMAKE_COMMAND) -E cmake_echo_color --switch=$(COLOR) --green --progress-dir=/home/prashant/Documents/Git/ForkDSPH/DualSPHysics/src/build-source-Imported_Kit-Debug/CMakeFiles --progress-num=$(CMAKE_PROGRESS_11) "Building CXX object CMakeFiles/DualSPHysics5.0CPU_linux64.dir/JDsMotion.cpp.o"
	/usr/bin/g++-7  $(CXX_DEFINES) $(CXX_INCLUDES) $(CXX_FLAGS) -o CMakeFiles/DualSPHysics5.0CPU_linux64.dir/JDsMotion.cpp.o -c /home/prashant/Documents/Git/ForkDSPH/DualSPHysics/src/source/JDsMotion.cpp

CMakeFiles/DualSPHysics5.0CPU_linux64.dir/JDsMotion.cpp.i: cmake_force
	@$(CMAKE_COMMAND) -E cmake_echo_color --switch=$(COLOR) --green "Preprocessing CXX source to CMakeFiles/DualSPHysics5.0CPU_linux64.dir/JDsMotion.cpp.i"
	/usr/bin/g++-7 $(CXX_DEFINES) $(CXX_INCLUDES) $(CXX_FLAGS) -E /home/prashant/Documents/Git/ForkDSPH/DualSPHysics/src/source/JDsMotion.cpp > CMakeFiles/DualSPHysics5.0CPU_linux64.dir/JDsMotion.cpp.i

CMakeFiles/DualSPHysics5.0CPU_linux64.dir/JDsMotion.cpp.s: cmake_force
	@$(CMAKE_COMMAND) -E cmake_echo_color --switch=$(COLOR) --green "Compiling CXX source to assembly CMakeFiles/DualSPHysics5.0CPU_linux64.dir/JDsMotion.cpp.s"
	/usr/bin/g++-7 $(CXX_DEFINES) $(CXX_INCLUDES) $(CXX_FLAGS) -S /home/prashant/Documents/Git/ForkDSPH/DualSPHysics/src/source/JDsMotion.cpp -o CMakeFiles/DualSPHysics5.0CPU_linux64.dir/JDsMotion.cpp.s

CMakeFiles/DualSPHysics5.0CPU_linux64.dir/Functions.cpp.o: CMakeFiles/DualSPHysics5.0CPU_linux64.dir/flags.make
CMakeFiles/DualSPHysics5.0CPU_linux64.dir/Functions.cpp.o: /home/prashant/Documents/Git/ForkDSPH/DualSPHysics/src/source/Functions.cpp
	@$(CMAKE_COMMAND) -E cmake_echo_color --switch=$(COLOR) --green --progress-dir=/home/prashant/Documents/Git/ForkDSPH/DualSPHysics/src/build-source-Imported_Kit-Debug/CMakeFiles --progress-num=$(CMAKE_PROGRESS_12) "Building CXX object CMakeFiles/DualSPHysics5.0CPU_linux64.dir/Functions.cpp.o"
	/usr/bin/g++-7  $(CXX_DEFINES) $(CXX_INCLUDES) $(CXX_FLAGS) -o CMakeFiles/DualSPHysics5.0CPU_linux64.dir/Functions.cpp.o -c /home/prashant/Documents/Git/ForkDSPH/DualSPHysics/src/source/Functions.cpp

CMakeFiles/DualSPHysics5.0CPU_linux64.dir/Functions.cpp.i: cmake_force
	@$(CMAKE_COMMAND) -E cmake_echo_color --switch=$(COLOR) --green "Preprocessing CXX source to CMakeFiles/DualSPHysics5.0CPU_linux64.dir/Functions.cpp.i"
	/usr/bin/g++-7 $(CXX_DEFINES) $(CXX_INCLUDES) $(CXX_FLAGS) -E /home/prashant/Documents/Git/ForkDSPH/DualSPHysics/src/source/Functions.cpp > CMakeFiles/DualSPHysics5.0CPU_linux64.dir/Functions.cpp.i

CMakeFiles/DualSPHysics5.0CPU_linux64.dir/Functions.cpp.s: cmake_force
	@$(CMAKE_COMMAND) -E cmake_echo_color --switch=$(COLOR) --green "Compiling CXX source to assembly CMakeFiles/DualSPHysics5.0CPU_linux64.dir/Functions.cpp.s"
	/usr/bin/g++-7 $(CXX_DEFINES) $(CXX_INCLUDES) $(CXX_FLAGS) -S /home/prashant/Documents/Git/ForkDSPH/DualSPHysics/src/source/Functions.cpp -o CMakeFiles/DualSPHysics5.0CPU_linux64.dir/Functions.cpp.s

CMakeFiles/DualSPHysics5.0CPU_linux64.dir/FunctionsGeo3d.cpp.o: CMakeFiles/DualSPHysics5.0CPU_linux64.dir/flags.make
CMakeFiles/DualSPHysics5.0CPU_linux64.dir/FunctionsGeo3d.cpp.o: /home/prashant/Documents/Git/ForkDSPH/DualSPHysics/src/source/FunctionsGeo3d.cpp
	@$(CMAKE_COMMAND) -E cmake_echo_color --switch=$(COLOR) --green --progress-dir=/home/prashant/Documents/Git/ForkDSPH/DualSPHysics/src/build-source-Imported_Kit-Debug/CMakeFiles --progress-num=$(CMAKE_PROGRESS_13) "Building CXX object CMakeFiles/DualSPHysics5.0CPU_linux64.dir/FunctionsGeo3d.cpp.o"
	/usr/bin/g++-7  $(CXX_DEFINES) $(CXX_INCLUDES) $(CXX_FLAGS) -o CMakeFiles/DualSPHysics5.0CPU_linux64.dir/FunctionsGeo3d.cpp.o -c /home/prashant/Documents/Git/ForkDSPH/DualSPHysics/src/source/FunctionsGeo3d.cpp

CMakeFiles/DualSPHysics5.0CPU_linux64.dir/FunctionsGeo3d.cpp.i: cmake_force
	@$(CMAKE_COMMAND) -E cmake_echo_color --switch=$(COLOR) --green "Preprocessing CXX source to CMakeFiles/DualSPHysics5.0CPU_linux64.dir/FunctionsGeo3d.cpp.i"
	/usr/bin/g++-7 $(CXX_DEFINES) $(CXX_INCLUDES) $(CXX_FLAGS) -E /home/prashant/Documents/Git/ForkDSPH/DualSPHysics/src/source/FunctionsGeo3d.cpp > CMakeFiles/DualSPHysics5.0CPU_linux64.dir/FunctionsGeo3d.cpp.i

CMakeFiles/DualSPHysics5.0CPU_linux64.dir/FunctionsGeo3d.cpp.s: cmake_force
	@$(CMAKE_COMMAND) -E cmake_echo_color --switch=$(COLOR) --green "Compiling CXX source to assembly CMakeFiles/DualSPHysics5.0CPU_linux64.dir/FunctionsGeo3d.cpp.s"
	/usr/bin/g++-7 $(CXX_DEFINES) $(CXX_INCLUDES) $(CXX_FLAGS) -S /home/prashant/Documents/Git/ForkDSPH/DualSPHysics/src/source/FunctionsGeo3d.cpp -o CMakeFiles/DualSPHysics5.0CPU_linux64.dir/FunctionsGeo3d.cpp.s

CMakeFiles/DualSPHysics5.0CPU_linux64.dir/FunSphKernelsCfg.cpp.o: CMakeFiles/DualSPHysics5.0CPU_linux64.dir/flags.make
CMakeFiles/DualSPHysics5.0CPU_linux64.dir/FunSphKernelsCfg.cpp.o: /home/prashant/Documents/Git/ForkDSPH/DualSPHysics/src/source/FunSphKernelsCfg.cpp
	@$(CMAKE_COMMAND) -E cmake_echo_color --switch=$(COLOR) --green --progress-dir=/home/prashant/Documents/Git/ForkDSPH/DualSPHysics/src/build-source-Imported_Kit-Debug/CMakeFiles --progress-num=$(CMAKE_PROGRESS_14) "Building CXX object CMakeFiles/DualSPHysics5.0CPU_linux64.dir/FunSphKernelsCfg.cpp.o"
	/usr/bin/g++-7  $(CXX_DEFINES) $(CXX_INCLUDES) $(CXX_FLAGS) -o CMakeFiles/DualSPHysics5.0CPU_linux64.dir/FunSphKernelsCfg.cpp.o -c /home/prashant/Documents/Git/ForkDSPH/DualSPHysics/src/source/FunSphKernelsCfg.cpp

CMakeFiles/DualSPHysics5.0CPU_linux64.dir/FunSphKernelsCfg.cpp.i: cmake_force
	@$(CMAKE_COMMAND) -E cmake_echo_color --switch=$(COLOR) --green "Preprocessing CXX source to CMakeFiles/DualSPHysics5.0CPU_linux64.dir/FunSphKernelsCfg.cpp.i"
	/usr/bin/g++-7 $(CXX_DEFINES) $(CXX_INCLUDES) $(CXX_FLAGS) -E /home/prashant/Documents/Git/ForkDSPH/DualSPHysics/src/source/FunSphKernelsCfg.cpp > CMakeFiles/DualSPHysics5.0CPU_linux64.dir/FunSphKernelsCfg.cpp.i

CMakeFiles/DualSPHysics5.0CPU_linux64.dir/FunSphKernelsCfg.cpp.s: cmake_force
	@$(CMAKE_COMMAND) -E cmake_echo_color --switch=$(COLOR) --green "Compiling CXX source to assembly CMakeFiles/DualSPHysics5.0CPU_linux64.dir/FunSphKernelsCfg.cpp.s"
	/usr/bin/g++-7 $(CXX_DEFINES) $(CXX_INCLUDES) $(CXX_FLAGS) -S /home/prashant/Documents/Git/ForkDSPH/DualSPHysics/src/source/FunSphKernelsCfg.cpp -o CMakeFiles/DualSPHysics5.0CPU_linux64.dir/FunSphKernelsCfg.cpp.s

CMakeFiles/DualSPHysics5.0CPU_linux64.dir/JAppInfo.cpp.o: CMakeFiles/DualSPHysics5.0CPU_linux64.dir/flags.make
CMakeFiles/DualSPHysics5.0CPU_linux64.dir/JAppInfo.cpp.o: /home/prashant/Documents/Git/ForkDSPH/DualSPHysics/src/source/JAppInfo.cpp
	@$(CMAKE_COMMAND) -E cmake_echo_color --switch=$(COLOR) --green --progress-dir=/home/prashant/Documents/Git/ForkDSPH/DualSPHysics/src/build-source-Imported_Kit-Debug/CMakeFiles --progress-num=$(CMAKE_PROGRESS_15) "Building CXX object CMakeFiles/DualSPHysics5.0CPU_linux64.dir/JAppInfo.cpp.o"
	/usr/bin/g++-7  $(CXX_DEFINES) $(CXX_INCLUDES) $(CXX_FLAGS) -o CMakeFiles/DualSPHysics5.0CPU_linux64.dir/JAppInfo.cpp.o -c /home/prashant/Documents/Git/ForkDSPH/DualSPHysics/src/source/JAppInfo.cpp

CMakeFiles/DualSPHysics5.0CPU_linux64.dir/JAppInfo.cpp.i: cmake_force
	@$(CMAKE_COMMAND) -E cmake_echo_color --switch=$(COLOR) --green "Preprocessing CXX source to CMakeFiles/DualSPHysics5.0CPU_linux64.dir/JAppInfo.cpp.i"
	/usr/bin/g++-7 $(CXX_DEFINES) $(CXX_INCLUDES) $(CXX_FLAGS) -E /home/prashant/Documents/Git/ForkDSPH/DualSPHysics/src/source/JAppInfo.cpp > CMakeFiles/DualSPHysics5.0CPU_linux64.dir/JAppInfo.cpp.i

CMakeFiles/DualSPHysics5.0CPU_linux64.dir/JAppInfo.cpp.s: cmake_force
	@$(CMAKE_COMMAND) -E cmake_echo_color --switch=$(COLOR) --green "Compiling CXX source to assembly CMakeFiles/DualSPHysics5.0CPU_linux64.dir/JAppInfo.cpp.s"
	/usr/bin/g++-7 $(CXX_DEFINES) $(CXX_INCLUDES) $(CXX_FLAGS) -S /home/prashant/Documents/Git/ForkDSPH/DualSPHysics/src/source/JAppInfo.cpp -o CMakeFiles/DualSPHysics5.0CPU_linux64.dir/JAppInfo.cpp.s

CMakeFiles/DualSPHysics5.0CPU_linux64.dir/JBinaryData.cpp.o: CMakeFiles/DualSPHysics5.0CPU_linux64.dir/flags.make
CMakeFiles/DualSPHysics5.0CPU_linux64.dir/JBinaryData.cpp.o: /home/prashant/Documents/Git/ForkDSPH/DualSPHysics/src/source/JBinaryData.cpp
	@$(CMAKE_COMMAND) -E cmake_echo_color --switch=$(COLOR) --green --progress-dir=/home/prashant/Documents/Git/ForkDSPH/DualSPHysics/src/build-source-Imported_Kit-Debug/CMakeFiles --progress-num=$(CMAKE_PROGRESS_16) "Building CXX object CMakeFiles/DualSPHysics5.0CPU_linux64.dir/JBinaryData.cpp.o"
	/usr/bin/g++-7  $(CXX_DEFINES) $(CXX_INCLUDES) $(CXX_FLAGS) -o CMakeFiles/DualSPHysics5.0CPU_linux64.dir/JBinaryData.cpp.o -c /home/prashant/Documents/Git/ForkDSPH/DualSPHysics/src/source/JBinaryData.cpp

CMakeFiles/DualSPHysics5.0CPU_linux64.dir/JBinaryData.cpp.i: cmake_force
	@$(CMAKE_COMMAND) -E cmake_echo_color --switch=$(COLOR) --green "Preprocessing CXX source to CMakeFiles/DualSPHysics5.0CPU_linux64.dir/JBinaryData.cpp.i"
	/usr/bin/g++-7 $(CXX_DEFINES) $(CXX_INCLUDES) $(CXX_FLAGS) -E /home/prashant/Documents/Git/ForkDSPH/DualSPHysics/src/source/JBinaryData.cpp > CMakeFiles/DualSPHysics5.0CPU_linux64.dir/JBinaryData.cpp.i

CMakeFiles/DualSPHysics5.0CPU_linux64.dir/JBinaryData.cpp.s: cmake_force
	@$(CMAKE_COMMAND) -E cmake_echo_color --switch=$(COLOR) --green "Compiling CXX source to assembly CMakeFiles/DualSPHysics5.0CPU_linux64.dir/JBinaryData.cpp.s"
	/usr/bin/g++-7 $(CXX_DEFINES) $(CXX_INCLUDES) $(CXX_FLAGS) -S /home/prashant/Documents/Git/ForkDSPH/DualSPHysics/src/source/JBinaryData.cpp -o CMakeFiles/DualSPHysics5.0CPU_linux64.dir/JBinaryData.cpp.s

CMakeFiles/DualSPHysics5.0CPU_linux64.dir/JCfgRunBase.cpp.o: CMakeFiles/DualSPHysics5.0CPU_linux64.dir/flags.make
CMakeFiles/DualSPHysics5.0CPU_linux64.dir/JCfgRunBase.cpp.o: /home/prashant/Documents/Git/ForkDSPH/DualSPHysics/src/source/JCfgRunBase.cpp
	@$(CMAKE_COMMAND) -E cmake_echo_color --switch=$(COLOR) --green --progress-dir=/home/prashant/Documents/Git/ForkDSPH/DualSPHysics/src/build-source-Imported_Kit-Debug/CMakeFiles --progress-num=$(CMAKE_PROGRESS_17) "Building CXX object CMakeFiles/DualSPHysics5.0CPU_linux64.dir/JCfgRunBase.cpp.o"
	/usr/bin/g++-7  $(CXX_DEFINES) $(CXX_INCLUDES) $(CXX_FLAGS) -o CMakeFiles/DualSPHysics5.0CPU_linux64.dir/JCfgRunBase.cpp.o -c /home/prashant/Documents/Git/ForkDSPH/DualSPHysics/src/source/JCfgRunBase.cpp

CMakeFiles/DualSPHysics5.0CPU_linux64.dir/JCfgRunBase.cpp.i: cmake_force
	@$(CMAKE_COMMAND) -E cmake_echo_color --switch=$(COLOR) --green "Preprocessing CXX source to CMakeFiles/DualSPHysics5.0CPU_linux64.dir/JCfgRunBase.cpp.i"
	/usr/bin/g++-7 $(CXX_DEFINES) $(CXX_INCLUDES) $(CXX_FLAGS) -E /home/prashant/Documents/Git/ForkDSPH/DualSPHysics/src/source/JCfgRunBase.cpp > CMakeFiles/DualSPHysics5.0CPU_linux64.dir/JCfgRunBase.cpp.i

CMakeFiles/DualSPHysics5.0CPU_linux64.dir/JCfgRunBase.cpp.s: cmake_force
	@$(CMAKE_COMMAND) -E cmake_echo_color --switch=$(COLOR) --green "Compiling CXX source to assembly CMakeFiles/DualSPHysics5.0CPU_linux64.dir/JCfgRunBase.cpp.s"
	/usr/bin/g++-7 $(CXX_DEFINES) $(CXX_INCLUDES) $(CXX_FLAGS) -S /home/prashant/Documents/Git/ForkDSPH/DualSPHysics/src/source/JCfgRunBase.cpp -o CMakeFiles/DualSPHysics5.0CPU_linux64.dir/JCfgRunBase.cpp.s

CMakeFiles/DualSPHysics5.0CPU_linux64.dir/JDataArrays.cpp.o: CMakeFiles/DualSPHysics5.0CPU_linux64.dir/flags.make
CMakeFiles/DualSPHysics5.0CPU_linux64.dir/JDataArrays.cpp.o: /home/prashant/Documents/Git/ForkDSPH/DualSPHysics/src/source/JDataArrays.cpp
	@$(CMAKE_COMMAND) -E cmake_echo_color --switch=$(COLOR) --green --progress-dir=/home/prashant/Documents/Git/ForkDSPH/DualSPHysics/src/build-source-Imported_Kit-Debug/CMakeFiles --progress-num=$(CMAKE_PROGRESS_18) "Building CXX object CMakeFiles/DualSPHysics5.0CPU_linux64.dir/JDataArrays.cpp.o"
	/usr/bin/g++-7  $(CXX_DEFINES) $(CXX_INCLUDES) $(CXX_FLAGS) -o CMakeFiles/DualSPHysics5.0CPU_linux64.dir/JDataArrays.cpp.o -c /home/prashant/Documents/Git/ForkDSPH/DualSPHysics/src/source/JDataArrays.cpp

CMakeFiles/DualSPHysics5.0CPU_linux64.dir/JDataArrays.cpp.i: cmake_force
	@$(CMAKE_COMMAND) -E cmake_echo_color --switch=$(COLOR) --green "Preprocessing CXX source to CMakeFiles/DualSPHysics5.0CPU_linux64.dir/JDataArrays.cpp.i"
	/usr/bin/g++-7 $(CXX_DEFINES) $(CXX_INCLUDES) $(CXX_FLAGS) -E /home/prashant/Documents/Git/ForkDSPH/DualSPHysics/src/source/JDataArrays.cpp > CMakeFiles/DualSPHysics5.0CPU_linux64.dir/JDataArrays.cpp.i

CMakeFiles/DualSPHysics5.0CPU_linux64.dir/JDataArrays.cpp.s: cmake_force
	@$(CMAKE_COMMAND) -E cmake_echo_color --switch=$(COLOR) --green "Compiling CXX source to assembly CMakeFiles/DualSPHysics5.0CPU_linux64.dir/JDataArrays.cpp.s"
	/usr/bin/g++-7 $(CXX_DEFINES) $(CXX_INCLUDES) $(CXX_FLAGS) -S /home/prashant/Documents/Git/ForkDSPH/DualSPHysics/src/source/JDataArrays.cpp -o CMakeFiles/DualSPHysics5.0CPU_linux64.dir/JDataArrays.cpp.s

CMakeFiles/DualSPHysics5.0CPU_linux64.dir/JException.cpp.o: CMakeFiles/DualSPHysics5.0CPU_linux64.dir/flags.make
CMakeFiles/DualSPHysics5.0CPU_linux64.dir/JException.cpp.o: /home/prashant/Documents/Git/ForkDSPH/DualSPHysics/src/source/JException.cpp
	@$(CMAKE_COMMAND) -E cmake_echo_color --switch=$(COLOR) --green --progress-dir=/home/prashant/Documents/Git/ForkDSPH/DualSPHysics/src/build-source-Imported_Kit-Debug/CMakeFiles --progress-num=$(CMAKE_PROGRESS_19) "Building CXX object CMakeFiles/DualSPHysics5.0CPU_linux64.dir/JException.cpp.o"
	/usr/bin/g++-7  $(CXX_DEFINES) $(CXX_INCLUDES) $(CXX_FLAGS) -o CMakeFiles/DualSPHysics5.0CPU_linux64.dir/JException.cpp.o -c /home/prashant/Documents/Git/ForkDSPH/DualSPHysics/src/source/JException.cpp

CMakeFiles/DualSPHysics5.0CPU_linux64.dir/JException.cpp.i: cmake_force
	@$(CMAKE_COMMAND) -E cmake_echo_color --switch=$(COLOR) --green "Preprocessing CXX source to CMakeFiles/DualSPHysics5.0CPU_linux64.dir/JException.cpp.i"
	/usr/bin/g++-7 $(CXX_DEFINES) $(CXX_INCLUDES) $(CXX_FLAGS) -E /home/prashant/Documents/Git/ForkDSPH/DualSPHysics/src/source/JException.cpp > CMakeFiles/DualSPHysics5.0CPU_linux64.dir/JException.cpp.i

CMakeFiles/DualSPHysics5.0CPU_linux64.dir/JException.cpp.s: cmake_force
	@$(CMAKE_COMMAND) -E cmake_echo_color --switch=$(COLOR) --green "Compiling CXX source to assembly CMakeFiles/DualSPHysics5.0CPU_linux64.dir/JException.cpp.s"
	/usr/bin/g++-7 $(CXX_DEFINES) $(CXX_INCLUDES) $(CXX_FLAGS) -S /home/prashant/Documents/Git/ForkDSPH/DualSPHysics/src/source/JException.cpp -o CMakeFiles/DualSPHysics5.0CPU_linux64.dir/JException.cpp.s

CMakeFiles/DualSPHysics5.0CPU_linux64.dir/JLinearValue.cpp.o: CMakeFiles/DualSPHysics5.0CPU_linux64.dir/flags.make
CMakeFiles/DualSPHysics5.0CPU_linux64.dir/JLinearValue.cpp.o: /home/prashant/Documents/Git/ForkDSPH/DualSPHysics/src/source/JLinearValue.cpp
	@$(CMAKE_COMMAND) -E cmake_echo_color --switch=$(COLOR) --green --progress-dir=/home/prashant/Documents/Git/ForkDSPH/DualSPHysics/src/build-source-Imported_Kit-Debug/CMakeFiles --progress-num=$(CMAKE_PROGRESS_20) "Building CXX object CMakeFiles/DualSPHysics5.0CPU_linux64.dir/JLinearValue.cpp.o"
	/usr/bin/g++-7  $(CXX_DEFINES) $(CXX_INCLUDES) $(CXX_FLAGS) -o CMakeFiles/DualSPHysics5.0CPU_linux64.dir/JLinearValue.cpp.o -c /home/prashant/Documents/Git/ForkDSPH/DualSPHysics/src/source/JLinearValue.cpp

CMakeFiles/DualSPHysics5.0CPU_linux64.dir/JLinearValue.cpp.i: cmake_force
	@$(CMAKE_COMMAND) -E cmake_echo_color --switch=$(COLOR) --green "Preprocessing CXX source to CMakeFiles/DualSPHysics5.0CPU_linux64.dir/JLinearValue.cpp.i"
	/usr/bin/g++-7 $(CXX_DEFINES) $(CXX_INCLUDES) $(CXX_FLAGS) -E /home/prashant/Documents/Git/ForkDSPH/DualSPHysics/src/source/JLinearValue.cpp > CMakeFiles/DualSPHysics5.0CPU_linux64.dir/JLinearValue.cpp.i

CMakeFiles/DualSPHysics5.0CPU_linux64.dir/JLinearValue.cpp.s: cmake_force
	@$(CMAKE_COMMAND) -E cmake_echo_color --switch=$(COLOR) --green "Compiling CXX source to assembly CMakeFiles/DualSPHysics5.0CPU_linux64.dir/JLinearValue.cpp.s"
	/usr/bin/g++-7 $(CXX_DEFINES) $(CXX_INCLUDES) $(CXX_FLAGS) -S /home/prashant/Documents/Git/ForkDSPH/DualSPHysics/src/source/JLinearValue.cpp -o CMakeFiles/DualSPHysics5.0CPU_linux64.dir/JLinearValue.cpp.s

CMakeFiles/DualSPHysics5.0CPU_linux64.dir/JLog2.cpp.o: CMakeFiles/DualSPHysics5.0CPU_linux64.dir/flags.make
CMakeFiles/DualSPHysics5.0CPU_linux64.dir/JLog2.cpp.o: /home/prashant/Documents/Git/ForkDSPH/DualSPHysics/src/source/JLog2.cpp
	@$(CMAKE_COMMAND) -E cmake_echo_color --switch=$(COLOR) --green --progress-dir=/home/prashant/Documents/Git/ForkDSPH/DualSPHysics/src/build-source-Imported_Kit-Debug/CMakeFiles --progress-num=$(CMAKE_PROGRESS_21) "Building CXX object CMakeFiles/DualSPHysics5.0CPU_linux64.dir/JLog2.cpp.o"
	/usr/bin/g++-7  $(CXX_DEFINES) $(CXX_INCLUDES) $(CXX_FLAGS) -o CMakeFiles/DualSPHysics5.0CPU_linux64.dir/JLog2.cpp.o -c /home/prashant/Documents/Git/ForkDSPH/DualSPHysics/src/source/JLog2.cpp

CMakeFiles/DualSPHysics5.0CPU_linux64.dir/JLog2.cpp.i: cmake_force
	@$(CMAKE_COMMAND) -E cmake_echo_color --switch=$(COLOR) --green "Preprocessing CXX source to CMakeFiles/DualSPHysics5.0CPU_linux64.dir/JLog2.cpp.i"
	/usr/bin/g++-7 $(CXX_DEFINES) $(CXX_INCLUDES) $(CXX_FLAGS) -E /home/prashant/Documents/Git/ForkDSPH/DualSPHysics/src/source/JLog2.cpp > CMakeFiles/DualSPHysics5.0CPU_linux64.dir/JLog2.cpp.i

CMakeFiles/DualSPHysics5.0CPU_linux64.dir/JLog2.cpp.s: cmake_force
	@$(CMAKE_COMMAND) -E cmake_echo_color --switch=$(COLOR) --green "Compiling CXX source to assembly CMakeFiles/DualSPHysics5.0CPU_linux64.dir/JLog2.cpp.s"
	/usr/bin/g++-7 $(CXX_DEFINES) $(CXX_INCLUDES) $(CXX_FLAGS) -S /home/prashant/Documents/Git/ForkDSPH/DualSPHysics/src/source/JLog2.cpp -o CMakeFiles/DualSPHysics5.0CPU_linux64.dir/JLog2.cpp.s

CMakeFiles/DualSPHysics5.0CPU_linux64.dir/JMeanValues.cpp.o: CMakeFiles/DualSPHysics5.0CPU_linux64.dir/flags.make
CMakeFiles/DualSPHysics5.0CPU_linux64.dir/JMeanValues.cpp.o: /home/prashant/Documents/Git/ForkDSPH/DualSPHysics/src/source/JMeanValues.cpp
	@$(CMAKE_COMMAND) -E cmake_echo_color --switch=$(COLOR) --green --progress-dir=/home/prashant/Documents/Git/ForkDSPH/DualSPHysics/src/build-source-Imported_Kit-Debug/CMakeFiles --progress-num=$(CMAKE_PROGRESS_22) "Building CXX object CMakeFiles/DualSPHysics5.0CPU_linux64.dir/JMeanValues.cpp.o"
	/usr/bin/g++-7  $(CXX_DEFINES) $(CXX_INCLUDES) $(CXX_FLAGS) -o CMakeFiles/DualSPHysics5.0CPU_linux64.dir/JMeanValues.cpp.o -c /home/prashant/Documents/Git/ForkDSPH/DualSPHysics/src/source/JMeanValues.cpp

CMakeFiles/DualSPHysics5.0CPU_linux64.dir/JMeanValues.cpp.i: cmake_force
	@$(CMAKE_COMMAND) -E cmake_echo_color --switch=$(COLOR) --green "Preprocessing CXX source to CMakeFiles/DualSPHysics5.0CPU_linux64.dir/JMeanValues.cpp.i"
	/usr/bin/g++-7 $(CXX_DEFINES) $(CXX_INCLUDES) $(CXX_FLAGS) -E /home/prashant/Documents/Git/ForkDSPH/DualSPHysics/src/source/JMeanValues.cpp > CMakeFiles/DualSPHysics5.0CPU_linux64.dir/JMeanValues.cpp.i

CMakeFiles/DualSPHysics5.0CPU_linux64.dir/JMeanValues.cpp.s: cmake_force
	@$(CMAKE_COMMAND) -E cmake_echo_color --switch=$(COLOR) --green "Compiling CXX source to assembly CMakeFiles/DualSPHysics5.0CPU_linux64.dir/JMeanValues.cpp.s"
	/usr/bin/g++-7 $(CXX_DEFINES) $(CXX_INCLUDES) $(CXX_FLAGS) -S /home/prashant/Documents/Git/ForkDSPH/DualSPHysics/src/source/JMeanValues.cpp -o CMakeFiles/DualSPHysics5.0CPU_linux64.dir/JMeanValues.cpp.s

CMakeFiles/DualSPHysics5.0CPU_linux64.dir/JObject.cpp.o: CMakeFiles/DualSPHysics5.0CPU_linux64.dir/flags.make
CMakeFiles/DualSPHysics5.0CPU_linux64.dir/JObject.cpp.o: /home/prashant/Documents/Git/ForkDSPH/DualSPHysics/src/source/JObject.cpp
	@$(CMAKE_COMMAND) -E cmake_echo_color --switch=$(COLOR) --green --progress-dir=/home/prashant/Documents/Git/ForkDSPH/DualSPHysics/src/build-source-Imported_Kit-Debug/CMakeFiles --progress-num=$(CMAKE_PROGRESS_23) "Building CXX object CMakeFiles/DualSPHysics5.0CPU_linux64.dir/JObject.cpp.o"
	/usr/bin/g++-7  $(CXX_DEFINES) $(CXX_INCLUDES) $(CXX_FLAGS) -o CMakeFiles/DualSPHysics5.0CPU_linux64.dir/JObject.cpp.o -c /home/prashant/Documents/Git/ForkDSPH/DualSPHysics/src/source/JObject.cpp

CMakeFiles/DualSPHysics5.0CPU_linux64.dir/JObject.cpp.i: cmake_force
	@$(CMAKE_COMMAND) -E cmake_echo_color --switch=$(COLOR) --green "Preprocessing CXX source to CMakeFiles/DualSPHysics5.0CPU_linux64.dir/JObject.cpp.i"
	/usr/bin/g++-7 $(CXX_DEFINES) $(CXX_INCLUDES) $(CXX_FLAGS) -E /home/prashant/Documents/Git/ForkDSPH/DualSPHysics/src/source/JObject.cpp > CMakeFiles/DualSPHysics5.0CPU_linux64.dir/JObject.cpp.i

CMakeFiles/DualSPHysics5.0CPU_linux64.dir/JObject.cpp.s: cmake_force
	@$(CMAKE_COMMAND) -E cmake_echo_color --switch=$(COLOR) --green "Compiling CXX source to assembly CMakeFiles/DualSPHysics5.0CPU_linux64.dir/JObject.cpp.s"
	/usr/bin/g++-7 $(CXX_DEFINES) $(CXX_INCLUDES) $(CXX_FLAGS) -S /home/prashant/Documents/Git/ForkDSPH/DualSPHysics/src/source/JObject.cpp -o CMakeFiles/DualSPHysics5.0CPU_linux64.dir/JObject.cpp.s

CMakeFiles/DualSPHysics5.0CPU_linux64.dir/JOutputCsv.cpp.o: CMakeFiles/DualSPHysics5.0CPU_linux64.dir/flags.make
CMakeFiles/DualSPHysics5.0CPU_linux64.dir/JOutputCsv.cpp.o: /home/prashant/Documents/Git/ForkDSPH/DualSPHysics/src/source/JOutputCsv.cpp
	@$(CMAKE_COMMAND) -E cmake_echo_color --switch=$(COLOR) --green --progress-dir=/home/prashant/Documents/Git/ForkDSPH/DualSPHysics/src/build-source-Imported_Kit-Debug/CMakeFiles --progress-num=$(CMAKE_PROGRESS_24) "Building CXX object CMakeFiles/DualSPHysics5.0CPU_linux64.dir/JOutputCsv.cpp.o"
	/usr/bin/g++-7  $(CXX_DEFINES) $(CXX_INCLUDES) $(CXX_FLAGS) -o CMakeFiles/DualSPHysics5.0CPU_linux64.dir/JOutputCsv.cpp.o -c /home/prashant/Documents/Git/ForkDSPH/DualSPHysics/src/source/JOutputCsv.cpp

CMakeFiles/DualSPHysics5.0CPU_linux64.dir/JOutputCsv.cpp.i: cmake_force
	@$(CMAKE_COMMAND) -E cmake_echo_color --switch=$(COLOR) --green "Preprocessing CXX source to CMakeFiles/DualSPHysics5.0CPU_linux64.dir/JOutputCsv.cpp.i"
	/usr/bin/g++-7 $(CXX_DEFINES) $(CXX_INCLUDES) $(CXX_FLAGS) -E /home/prashant/Documents/Git/ForkDSPH/DualSPHysics/src/source/JOutputCsv.cpp > CMakeFiles/DualSPHysics5.0CPU_linux64.dir/JOutputCsv.cpp.i

CMakeFiles/DualSPHysics5.0CPU_linux64.dir/JOutputCsv.cpp.s: cmake_force
	@$(CMAKE_COMMAND) -E cmake_echo_color --switch=$(COLOR) --green "Compiling CXX source to assembly CMakeFiles/DualSPHysics5.0CPU_linux64.dir/JOutputCsv.cpp.s"
	/usr/bin/g++-7 $(CXX_DEFINES) $(CXX_INCLUDES) $(CXX_FLAGS) -S /home/prashant/Documents/Git/ForkDSPH/DualSPHysics/src/source/JOutputCsv.cpp -o CMakeFiles/DualSPHysics5.0CPU_linux64.dir/JOutputCsv.cpp.s

CMakeFiles/DualSPHysics5.0CPU_linux64.dir/JRadixSort.cpp.o: CMakeFiles/DualSPHysics5.0CPU_linux64.dir/flags.make
CMakeFiles/DualSPHysics5.0CPU_linux64.dir/JRadixSort.cpp.o: /home/prashant/Documents/Git/ForkDSPH/DualSPHysics/src/source/JRadixSort.cpp
	@$(CMAKE_COMMAND) -E cmake_echo_color --switch=$(COLOR) --green --progress-dir=/home/prashant/Documents/Git/ForkDSPH/DualSPHysics/src/build-source-Imported_Kit-Debug/CMakeFiles --progress-num=$(CMAKE_PROGRESS_25) "Building CXX object CMakeFiles/DualSPHysics5.0CPU_linux64.dir/JRadixSort.cpp.o"
	/usr/bin/g++-7  $(CXX_DEFINES) $(CXX_INCLUDES) $(CXX_FLAGS) -o CMakeFiles/DualSPHysics5.0CPU_linux64.dir/JRadixSort.cpp.o -c /home/prashant/Documents/Git/ForkDSPH/DualSPHysics/src/source/JRadixSort.cpp

CMakeFiles/DualSPHysics5.0CPU_linux64.dir/JRadixSort.cpp.i: cmake_force
	@$(CMAKE_COMMAND) -E cmake_echo_color --switch=$(COLOR) --green "Preprocessing CXX source to CMakeFiles/DualSPHysics5.0CPU_linux64.dir/JRadixSort.cpp.i"
	/usr/bin/g++-7 $(CXX_DEFINES) $(CXX_INCLUDES) $(CXX_FLAGS) -E /home/prashant/Documents/Git/ForkDSPH/DualSPHysics/src/source/JRadixSort.cpp > CMakeFiles/DualSPHysics5.0CPU_linux64.dir/JRadixSort.cpp.i

CMakeFiles/DualSPHysics5.0CPU_linux64.dir/JRadixSort.cpp.s: cmake_force
	@$(CMAKE_COMMAND) -E cmake_echo_color --switch=$(COLOR) --green "Compiling CXX source to assembly CMakeFiles/DualSPHysics5.0CPU_linux64.dir/JRadixSort.cpp.s"
	/usr/bin/g++-7 $(CXX_DEFINES) $(CXX_INCLUDES) $(CXX_FLAGS) -S /home/prashant/Documents/Git/ForkDSPH/DualSPHysics/src/source/JRadixSort.cpp -o CMakeFiles/DualSPHysics5.0CPU_linux64.dir/JRadixSort.cpp.s

CMakeFiles/DualSPHysics5.0CPU_linux64.dir/JRangeFilter.cpp.o: CMakeFiles/DualSPHysics5.0CPU_linux64.dir/flags.make
CMakeFiles/DualSPHysics5.0CPU_linux64.dir/JRangeFilter.cpp.o: /home/prashant/Documents/Git/ForkDSPH/DualSPHysics/src/source/JRangeFilter.cpp
	@$(CMAKE_COMMAND) -E cmake_echo_color --switch=$(COLOR) --green --progress-dir=/home/prashant/Documents/Git/ForkDSPH/DualSPHysics/src/build-source-Imported_Kit-Debug/CMakeFiles --progress-num=$(CMAKE_PROGRESS_26) "Building CXX object CMakeFiles/DualSPHysics5.0CPU_linux64.dir/JRangeFilter.cpp.o"
	/usr/bin/g++-7  $(CXX_DEFINES) $(CXX_INCLUDES) $(CXX_FLAGS) -o CMakeFiles/DualSPHysics5.0CPU_linux64.dir/JRangeFilter.cpp.o -c /home/prashant/Documents/Git/ForkDSPH/DualSPHysics/src/source/JRangeFilter.cpp

CMakeFiles/DualSPHysics5.0CPU_linux64.dir/JRangeFilter.cpp.i: cmake_force
	@$(CMAKE_COMMAND) -E cmake_echo_color --switch=$(COLOR) --green "Preprocessing CXX source to CMakeFiles/DualSPHysics5.0CPU_linux64.dir/JRangeFilter.cpp.i"
	/usr/bin/g++-7 $(CXX_DEFINES) $(CXX_INCLUDES) $(CXX_FLAGS) -E /home/prashant/Documents/Git/ForkDSPH/DualSPHysics/src/source/JRangeFilter.cpp > CMakeFiles/DualSPHysics5.0CPU_linux64.dir/JRangeFilter.cpp.i

CMakeFiles/DualSPHysics5.0CPU_linux64.dir/JRangeFilter.cpp.s: cmake_force
	@$(CMAKE_COMMAND) -E cmake_echo_color --switch=$(COLOR) --green "Compiling CXX source to assembly CMakeFiles/DualSPHysics5.0CPU_linux64.dir/JRangeFilter.cpp.s"
	/usr/bin/g++-7 $(CXX_DEFINES) $(CXX_INCLUDES) $(CXX_FLAGS) -S /home/prashant/Documents/Git/ForkDSPH/DualSPHysics/src/source/JRangeFilter.cpp -o CMakeFiles/DualSPHysics5.0CPU_linux64.dir/JRangeFilter.cpp.s

CMakeFiles/DualSPHysics5.0CPU_linux64.dir/JReadDatafile.cpp.o: CMakeFiles/DualSPHysics5.0CPU_linux64.dir/flags.make
CMakeFiles/DualSPHysics5.0CPU_linux64.dir/JReadDatafile.cpp.o: /home/prashant/Documents/Git/ForkDSPH/DualSPHysics/src/source/JReadDatafile.cpp
	@$(CMAKE_COMMAND) -E cmake_echo_color --switch=$(COLOR) --green --progress-dir=/home/prashant/Documents/Git/ForkDSPH/DualSPHysics/src/build-source-Imported_Kit-Debug/CMakeFiles --progress-num=$(CMAKE_PROGRESS_27) "Building CXX object CMakeFiles/DualSPHysics5.0CPU_linux64.dir/JReadDatafile.cpp.o"
	/usr/bin/g++-7  $(CXX_DEFINES) $(CXX_INCLUDES) $(CXX_FLAGS) -o CMakeFiles/DualSPHysics5.0CPU_linux64.dir/JReadDatafile.cpp.o -c /home/prashant/Documents/Git/ForkDSPH/DualSPHysics/src/source/JReadDatafile.cpp

CMakeFiles/DualSPHysics5.0CPU_linux64.dir/JReadDatafile.cpp.i: cmake_force
	@$(CMAKE_COMMAND) -E cmake_echo_color --switch=$(COLOR) --green "Preprocessing CXX source to CMakeFiles/DualSPHysics5.0CPU_linux64.dir/JReadDatafile.cpp.i"
	/usr/bin/g++-7 $(CXX_DEFINES) $(CXX_INCLUDES) $(CXX_FLAGS) -E /home/prashant/Documents/Git/ForkDSPH/DualSPHysics/src/source/JReadDatafile.cpp > CMakeFiles/DualSPHysics5.0CPU_linux64.dir/JReadDatafile.cpp.i

CMakeFiles/DualSPHysics5.0CPU_linux64.dir/JReadDatafile.cpp.s: cmake_force
	@$(CMAKE_COMMAND) -E cmake_echo_color --switch=$(COLOR) --green "Compiling CXX source to assembly CMakeFiles/DualSPHysics5.0CPU_linux64.dir/JReadDatafile.cpp.s"
	/usr/bin/g++-7 $(CXX_DEFINES) $(CXX_INCLUDES) $(CXX_FLAGS) -S /home/prashant/Documents/Git/ForkDSPH/DualSPHysics/src/source/JReadDatafile.cpp -o CMakeFiles/DualSPHysics5.0CPU_linux64.dir/JReadDatafile.cpp.s

CMakeFiles/DualSPHysics5.0CPU_linux64.dir/JSaveCsv2.cpp.o: CMakeFiles/DualSPHysics5.0CPU_linux64.dir/flags.make
CMakeFiles/DualSPHysics5.0CPU_linux64.dir/JSaveCsv2.cpp.o: /home/prashant/Documents/Git/ForkDSPH/DualSPHysics/src/source/JSaveCsv2.cpp
	@$(CMAKE_COMMAND) -E cmake_echo_color --switch=$(COLOR) --green --progress-dir=/home/prashant/Documents/Git/ForkDSPH/DualSPHysics/src/build-source-Imported_Kit-Debug/CMakeFiles --progress-num=$(CMAKE_PROGRESS_28) "Building CXX object CMakeFiles/DualSPHysics5.0CPU_linux64.dir/JSaveCsv2.cpp.o"
	/usr/bin/g++-7  $(CXX_DEFINES) $(CXX_INCLUDES) $(CXX_FLAGS) -o CMakeFiles/DualSPHysics5.0CPU_linux64.dir/JSaveCsv2.cpp.o -c /home/prashant/Documents/Git/ForkDSPH/DualSPHysics/src/source/JSaveCsv2.cpp

CMakeFiles/DualSPHysics5.0CPU_linux64.dir/JSaveCsv2.cpp.i: cmake_force
	@$(CMAKE_COMMAND) -E cmake_echo_color --switch=$(COLOR) --green "Preprocessing CXX source to CMakeFiles/DualSPHysics5.0CPU_linux64.dir/JSaveCsv2.cpp.i"
	/usr/bin/g++-7 $(CXX_DEFINES) $(CXX_INCLUDES) $(CXX_FLAGS) -E /home/prashant/Documents/Git/ForkDSPH/DualSPHysics/src/source/JSaveCsv2.cpp > CMakeFiles/DualSPHysics5.0CPU_linux64.dir/JSaveCsv2.cpp.i

CMakeFiles/DualSPHysics5.0CPU_linux64.dir/JSaveCsv2.cpp.s: cmake_force
	@$(CMAKE_COMMAND) -E cmake_echo_color --switch=$(COLOR) --green "Compiling CXX source to assembly CMakeFiles/DualSPHysics5.0CPU_linux64.dir/JSaveCsv2.cpp.s"
	/usr/bin/g++-7 $(CXX_DEFINES) $(CXX_INCLUDES) $(CXX_FLAGS) -S /home/prashant/Documents/Git/ForkDSPH/DualSPHysics/src/source/JSaveCsv2.cpp -o CMakeFiles/DualSPHysics5.0CPU_linux64.dir/JSaveCsv2.cpp.s

CMakeFiles/DualSPHysics5.0CPU_linux64.dir/JTimeControl.cpp.o: CMakeFiles/DualSPHysics5.0CPU_linux64.dir/flags.make
CMakeFiles/DualSPHysics5.0CPU_linux64.dir/JTimeControl.cpp.o: /home/prashant/Documents/Git/ForkDSPH/DualSPHysics/src/source/JTimeControl.cpp
	@$(CMAKE_COMMAND) -E cmake_echo_color --switch=$(COLOR) --green --progress-dir=/home/prashant/Documents/Git/ForkDSPH/DualSPHysics/src/build-source-Imported_Kit-Debug/CMakeFiles --progress-num=$(CMAKE_PROGRESS_29) "Building CXX object CMakeFiles/DualSPHysics5.0CPU_linux64.dir/JTimeControl.cpp.o"
	/usr/bin/g++-7  $(CXX_DEFINES) $(CXX_INCLUDES) $(CXX_FLAGS) -o CMakeFiles/DualSPHysics5.0CPU_linux64.dir/JTimeControl.cpp.o -c /home/prashant/Documents/Git/ForkDSPH/DualSPHysics/src/source/JTimeControl.cpp

CMakeFiles/DualSPHysics5.0CPU_linux64.dir/JTimeControl.cpp.i: cmake_force
	@$(CMAKE_COMMAND) -E cmake_echo_color --switch=$(COLOR) --green "Preprocessing CXX source to CMakeFiles/DualSPHysics5.0CPU_linux64.dir/JTimeControl.cpp.i"
	/usr/bin/g++-7 $(CXX_DEFINES) $(CXX_INCLUDES) $(CXX_FLAGS) -E /home/prashant/Documents/Git/ForkDSPH/DualSPHysics/src/source/JTimeControl.cpp > CMakeFiles/DualSPHysics5.0CPU_linux64.dir/JTimeControl.cpp.i

CMakeFiles/DualSPHysics5.0CPU_linux64.dir/JTimeControl.cpp.s: cmake_force
	@$(CMAKE_COMMAND) -E cmake_echo_color --switch=$(COLOR) --green "Compiling CXX source to assembly CMakeFiles/DualSPHysics5.0CPU_linux64.dir/JTimeControl.cpp.s"
	/usr/bin/g++-7 $(CXX_DEFINES) $(CXX_INCLUDES) $(CXX_FLAGS) -S /home/prashant/Documents/Git/ForkDSPH/DualSPHysics/src/source/JTimeControl.cpp -o CMakeFiles/DualSPHysics5.0CPU_linux64.dir/JTimeControl.cpp.s

CMakeFiles/DualSPHysics5.0CPU_linux64.dir/randomc.cpp.o: CMakeFiles/DualSPHysics5.0CPU_linux64.dir/flags.make
CMakeFiles/DualSPHysics5.0CPU_linux64.dir/randomc.cpp.o: /home/prashant/Documents/Git/ForkDSPH/DualSPHysics/src/source/randomc.cpp
	@$(CMAKE_COMMAND) -E cmake_echo_color --switch=$(COLOR) --green --progress-dir=/home/prashant/Documents/Git/ForkDSPH/DualSPHysics/src/build-source-Imported_Kit-Debug/CMakeFiles --progress-num=$(CMAKE_PROGRESS_30) "Building CXX object CMakeFiles/DualSPHysics5.0CPU_linux64.dir/randomc.cpp.o"
	/usr/bin/g++-7  $(CXX_DEFINES) $(CXX_INCLUDES) $(CXX_FLAGS) -o CMakeFiles/DualSPHysics5.0CPU_linux64.dir/randomc.cpp.o -c /home/prashant/Documents/Git/ForkDSPH/DualSPHysics/src/source/randomc.cpp

CMakeFiles/DualSPHysics5.0CPU_linux64.dir/randomc.cpp.i: cmake_force
	@$(CMAKE_COMMAND) -E cmake_echo_color --switch=$(COLOR) --green "Preprocessing CXX source to CMakeFiles/DualSPHysics5.0CPU_linux64.dir/randomc.cpp.i"
	/usr/bin/g++-7 $(CXX_DEFINES) $(CXX_INCLUDES) $(CXX_FLAGS) -E /home/prashant/Documents/Git/ForkDSPH/DualSPHysics/src/source/randomc.cpp > CMakeFiles/DualSPHysics5.0CPU_linux64.dir/randomc.cpp.i

CMakeFiles/DualSPHysics5.0CPU_linux64.dir/randomc.cpp.s: cmake_force
	@$(CMAKE_COMMAND) -E cmake_echo_color --switch=$(COLOR) --green "Compiling CXX source to assembly CMakeFiles/DualSPHysics5.0CPU_linux64.dir/randomc.cpp.s"
	/usr/bin/g++-7 $(CXX_DEFINES) $(CXX_INCLUDES) $(CXX_FLAGS) -S /home/prashant/Documents/Git/ForkDSPH/DualSPHysics/src/source/randomc.cpp -o CMakeFiles/DualSPHysics5.0CPU_linux64.dir/randomc.cpp.s

CMakeFiles/DualSPHysics5.0CPU_linux64.dir/JDsphConfig.cpp.o: CMakeFiles/DualSPHysics5.0CPU_linux64.dir/flags.make
CMakeFiles/DualSPHysics5.0CPU_linux64.dir/JDsphConfig.cpp.o: /home/prashant/Documents/Git/ForkDSPH/DualSPHysics/src/source/JDsphConfig.cpp
	@$(CMAKE_COMMAND) -E cmake_echo_color --switch=$(COLOR) --green --progress-dir=/home/prashant/Documents/Git/ForkDSPH/DualSPHysics/src/build-source-Imported_Kit-Debug/CMakeFiles --progress-num=$(CMAKE_PROGRESS_31) "Building CXX object CMakeFiles/DualSPHysics5.0CPU_linux64.dir/JDsphConfig.cpp.o"
	/usr/bin/g++-7  $(CXX_DEFINES) $(CXX_INCLUDES) $(CXX_FLAGS) -o CMakeFiles/DualSPHysics5.0CPU_linux64.dir/JDsphConfig.cpp.o -c /home/prashant/Documents/Git/ForkDSPH/DualSPHysics/src/source/JDsphConfig.cpp

CMakeFiles/DualSPHysics5.0CPU_linux64.dir/JDsphConfig.cpp.i: cmake_force
	@$(CMAKE_COMMAND) -E cmake_echo_color --switch=$(COLOR) --green "Preprocessing CXX source to CMakeFiles/DualSPHysics5.0CPU_linux64.dir/JDsphConfig.cpp.i"
	/usr/bin/g++-7 $(CXX_DEFINES) $(CXX_INCLUDES) $(CXX_FLAGS) -E /home/prashant/Documents/Git/ForkDSPH/DualSPHysics/src/source/JDsphConfig.cpp > CMakeFiles/DualSPHysics5.0CPU_linux64.dir/JDsphConfig.cpp.i

CMakeFiles/DualSPHysics5.0CPU_linux64.dir/JDsphConfig.cpp.s: cmake_force
	@$(CMAKE_COMMAND) -E cmake_echo_color --switch=$(COLOR) --green "Compiling CXX source to assembly CMakeFiles/DualSPHysics5.0CPU_linux64.dir/JDsphConfig.cpp.s"
	/usr/bin/g++-7 $(CXX_DEFINES) $(CXX_INCLUDES) $(CXX_FLAGS) -S /home/prashant/Documents/Git/ForkDSPH/DualSPHysics/src/source/JDsphConfig.cpp -o CMakeFiles/DualSPHysics5.0CPU_linux64.dir/JDsphConfig.cpp.s

CMakeFiles/DualSPHysics5.0CPU_linux64.dir/JDsPips.cpp.o: CMakeFiles/DualSPHysics5.0CPU_linux64.dir/flags.make
CMakeFiles/DualSPHysics5.0CPU_linux64.dir/JDsPips.cpp.o: /home/prashant/Documents/Git/ForkDSPH/DualSPHysics/src/source/JDsPips.cpp
	@$(CMAKE_COMMAND) -E cmake_echo_color --switch=$(COLOR) --green --progress-dir=/home/prashant/Documents/Git/ForkDSPH/DualSPHysics/src/build-source-Imported_Kit-Debug/CMakeFiles --progress-num=$(CMAKE_PROGRESS_32) "Building CXX object CMakeFiles/DualSPHysics5.0CPU_linux64.dir/JDsPips.cpp.o"
	/usr/bin/g++-7  $(CXX_DEFINES) $(CXX_INCLUDES) $(CXX_FLAGS) -o CMakeFiles/DualSPHysics5.0CPU_linux64.dir/JDsPips.cpp.o -c /home/prashant/Documents/Git/ForkDSPH/DualSPHysics/src/source/JDsPips.cpp

CMakeFiles/DualSPHysics5.0CPU_linux64.dir/JDsPips.cpp.i: cmake_force
	@$(CMAKE_COMMAND) -E cmake_echo_color --switch=$(COLOR) --green "Preprocessing CXX source to CMakeFiles/DualSPHysics5.0CPU_linux64.dir/JDsPips.cpp.i"
	/usr/bin/g++-7 $(CXX_DEFINES) $(CXX_INCLUDES) $(CXX_FLAGS) -E /home/prashant/Documents/Git/ForkDSPH/DualSPHysics/src/source/JDsPips.cpp > CMakeFiles/DualSPHysics5.0CPU_linux64.dir/JDsPips.cpp.i

CMakeFiles/DualSPHysics5.0CPU_linux64.dir/JDsPips.cpp.s: cmake_force
	@$(CMAKE_COMMAND) -E cmake_echo_color --switch=$(COLOR) --green "Compiling CXX source to assembly CMakeFiles/DualSPHysics5.0CPU_linux64.dir/JDsPips.cpp.s"
	/usr/bin/g++-7 $(CXX_DEFINES) $(CXX_INCLUDES) $(CXX_FLAGS) -S /home/prashant/Documents/Git/ForkDSPH/DualSPHysics/src/source/JDsPips.cpp -o CMakeFiles/DualSPHysics5.0CPU_linux64.dir/JDsPips.cpp.s

CMakeFiles/DualSPHysics5.0CPU_linux64.dir/JPartDataBi4.cpp.o: CMakeFiles/DualSPHysics5.0CPU_linux64.dir/flags.make
CMakeFiles/DualSPHysics5.0CPU_linux64.dir/JPartDataBi4.cpp.o: /home/prashant/Documents/Git/ForkDSPH/DualSPHysics/src/source/JPartDataBi4.cpp
	@$(CMAKE_COMMAND) -E cmake_echo_color --switch=$(COLOR) --green --progress-dir=/home/prashant/Documents/Git/ForkDSPH/DualSPHysics/src/build-source-Imported_Kit-Debug/CMakeFiles --progress-num=$(CMAKE_PROGRESS_33) "Building CXX object CMakeFiles/DualSPHysics5.0CPU_linux64.dir/JPartDataBi4.cpp.o"
	/usr/bin/g++-7  $(CXX_DEFINES) $(CXX_INCLUDES) $(CXX_FLAGS) -o CMakeFiles/DualSPHysics5.0CPU_linux64.dir/JPartDataBi4.cpp.o -c /home/prashant/Documents/Git/ForkDSPH/DualSPHysics/src/source/JPartDataBi4.cpp

CMakeFiles/DualSPHysics5.0CPU_linux64.dir/JPartDataBi4.cpp.i: cmake_force
	@$(CMAKE_COMMAND) -E cmake_echo_color --switch=$(COLOR) --green "Preprocessing CXX source to CMakeFiles/DualSPHysics5.0CPU_linux64.dir/JPartDataBi4.cpp.i"
	/usr/bin/g++-7 $(CXX_DEFINES) $(CXX_INCLUDES) $(CXX_FLAGS) -E /home/prashant/Documents/Git/ForkDSPH/DualSPHysics/src/source/JPartDataBi4.cpp > CMakeFiles/DualSPHysics5.0CPU_linux64.dir/JPartDataBi4.cpp.i

CMakeFiles/DualSPHysics5.0CPU_linux64.dir/JPartDataBi4.cpp.s: cmake_force
	@$(CMAKE_COMMAND) -E cmake_echo_color --switch=$(COLOR) --green "Compiling CXX source to assembly CMakeFiles/DualSPHysics5.0CPU_linux64.dir/JPartDataBi4.cpp.s"
	/usr/bin/g++-7 $(CXX_DEFINES) $(CXX_INCLUDES) $(CXX_FLAGS) -S /home/prashant/Documents/Git/ForkDSPH/DualSPHysics/src/source/JPartDataBi4.cpp -o CMakeFiles/DualSPHysics5.0CPU_linux64.dir/JPartDataBi4.cpp.s

CMakeFiles/DualSPHysics5.0CPU_linux64.dir/JPartDataHead.cpp.o: CMakeFiles/DualSPHysics5.0CPU_linux64.dir/flags.make
CMakeFiles/DualSPHysics5.0CPU_linux64.dir/JPartDataHead.cpp.o: /home/prashant/Documents/Git/ForkDSPH/DualSPHysics/src/source/JPartDataHead.cpp
	@$(CMAKE_COMMAND) -E cmake_echo_color --switch=$(COLOR) --green --progress-dir=/home/prashant/Documents/Git/ForkDSPH/DualSPHysics/src/build-source-Imported_Kit-Debug/CMakeFiles --progress-num=$(CMAKE_PROGRESS_34) "Building CXX object CMakeFiles/DualSPHysics5.0CPU_linux64.dir/JPartDataHead.cpp.o"
	/usr/bin/g++-7  $(CXX_DEFINES) $(CXX_INCLUDES) $(CXX_FLAGS) -o CMakeFiles/DualSPHysics5.0CPU_linux64.dir/JPartDataHead.cpp.o -c /home/prashant/Documents/Git/ForkDSPH/DualSPHysics/src/source/JPartDataHead.cpp

CMakeFiles/DualSPHysics5.0CPU_linux64.dir/JPartDataHead.cpp.i: cmake_force
	@$(CMAKE_COMMAND) -E cmake_echo_color --switch=$(COLOR) --green "Preprocessing CXX source to CMakeFiles/DualSPHysics5.0CPU_linux64.dir/JPartDataHead.cpp.i"
	/usr/bin/g++-7 $(CXX_DEFINES) $(CXX_INCLUDES) $(CXX_FLAGS) -E /home/prashant/Documents/Git/ForkDSPH/DualSPHysics/src/source/JPartDataHead.cpp > CMakeFiles/DualSPHysics5.0CPU_linux64.dir/JPartDataHead.cpp.i

CMakeFiles/DualSPHysics5.0CPU_linux64.dir/JPartDataHead.cpp.s: cmake_force
	@$(CMAKE_COMMAND) -E cmake_echo_color --switch=$(COLOR) --green "Compiling CXX source to assembly CMakeFiles/DualSPHysics5.0CPU_linux64.dir/JPartDataHead.cpp.s"
	/usr/bin/g++-7 $(CXX_DEFINES) $(CXX_INCLUDES) $(CXX_FLAGS) -S /home/prashant/Documents/Git/ForkDSPH/DualSPHysics/src/source/JPartDataHead.cpp -o CMakeFiles/DualSPHysics5.0CPU_linux64.dir/JPartDataHead.cpp.s

CMakeFiles/DualSPHysics5.0CPU_linux64.dir/JPartFloatBi4.cpp.o: CMakeFiles/DualSPHysics5.0CPU_linux64.dir/flags.make
CMakeFiles/DualSPHysics5.0CPU_linux64.dir/JPartFloatBi4.cpp.o: /home/prashant/Documents/Git/ForkDSPH/DualSPHysics/src/source/JPartFloatBi4.cpp
	@$(CMAKE_COMMAND) -E cmake_echo_color --switch=$(COLOR) --green --progress-dir=/home/prashant/Documents/Git/ForkDSPH/DualSPHysics/src/build-source-Imported_Kit-Debug/CMakeFiles --progress-num=$(CMAKE_PROGRESS_35) "Building CXX object CMakeFiles/DualSPHysics5.0CPU_linux64.dir/JPartFloatBi4.cpp.o"
	/usr/bin/g++-7  $(CXX_DEFINES) $(CXX_INCLUDES) $(CXX_FLAGS) -o CMakeFiles/DualSPHysics5.0CPU_linux64.dir/JPartFloatBi4.cpp.o -c /home/prashant/Documents/Git/ForkDSPH/DualSPHysics/src/source/JPartFloatBi4.cpp

CMakeFiles/DualSPHysics5.0CPU_linux64.dir/JPartFloatBi4.cpp.i: cmake_force
	@$(CMAKE_COMMAND) -E cmake_echo_color --switch=$(COLOR) --green "Preprocessing CXX source to CMakeFiles/DualSPHysics5.0CPU_linux64.dir/JPartFloatBi4.cpp.i"
	/usr/bin/g++-7 $(CXX_DEFINES) $(CXX_INCLUDES) $(CXX_FLAGS) -E /home/prashant/Documents/Git/ForkDSPH/DualSPHysics/src/source/JPartFloatBi4.cpp > CMakeFiles/DualSPHysics5.0CPU_linux64.dir/JPartFloatBi4.cpp.i

CMakeFiles/DualSPHysics5.0CPU_linux64.dir/JPartFloatBi4.cpp.s: cmake_force
	@$(CMAKE_COMMAND) -E cmake_echo_color --switch=$(COLOR) --green "Compiling CXX source to assembly CMakeFiles/DualSPHysics5.0CPU_linux64.dir/JPartFloatBi4.cpp.s"
	/usr/bin/g++-7 $(CXX_DEFINES) $(CXX_INCLUDES) $(CXX_FLAGS) -S /home/prashant/Documents/Git/ForkDSPH/DualSPHysics/src/source/JPartFloatBi4.cpp -o CMakeFiles/DualSPHysics5.0CPU_linux64.dir/JPartFloatBi4.cpp.s

CMakeFiles/DualSPHysics5.0CPU_linux64.dir/JPartOutBi4Save.cpp.o: CMakeFiles/DualSPHysics5.0CPU_linux64.dir/flags.make
CMakeFiles/DualSPHysics5.0CPU_linux64.dir/JPartOutBi4Save.cpp.o: /home/prashant/Documents/Git/ForkDSPH/DualSPHysics/src/source/JPartOutBi4Save.cpp
	@$(CMAKE_COMMAND) -E cmake_echo_color --switch=$(COLOR) --green --progress-dir=/home/prashant/Documents/Git/ForkDSPH/DualSPHysics/src/build-source-Imported_Kit-Debug/CMakeFiles --progress-num=$(CMAKE_PROGRESS_36) "Building CXX object CMakeFiles/DualSPHysics5.0CPU_linux64.dir/JPartOutBi4Save.cpp.o"
	/usr/bin/g++-7  $(CXX_DEFINES) $(CXX_INCLUDES) $(CXX_FLAGS) -o CMakeFiles/DualSPHysics5.0CPU_linux64.dir/JPartOutBi4Save.cpp.o -c /home/prashant/Documents/Git/ForkDSPH/DualSPHysics/src/source/JPartOutBi4Save.cpp

CMakeFiles/DualSPHysics5.0CPU_linux64.dir/JPartOutBi4Save.cpp.i: cmake_force
	@$(CMAKE_COMMAND) -E cmake_echo_color --switch=$(COLOR) --green "Preprocessing CXX source to CMakeFiles/DualSPHysics5.0CPU_linux64.dir/JPartOutBi4Save.cpp.i"
	/usr/bin/g++-7 $(CXX_DEFINES) $(CXX_INCLUDES) $(CXX_FLAGS) -E /home/prashant/Documents/Git/ForkDSPH/DualSPHysics/src/source/JPartOutBi4Save.cpp > CMakeFiles/DualSPHysics5.0CPU_linux64.dir/JPartOutBi4Save.cpp.i

CMakeFiles/DualSPHysics5.0CPU_linux64.dir/JPartOutBi4Save.cpp.s: cmake_force
	@$(CMAKE_COMMAND) -E cmake_echo_color --switch=$(COLOR) --green "Compiling CXX source to assembly CMakeFiles/DualSPHysics5.0CPU_linux64.dir/JPartOutBi4Save.cpp.s"
	/usr/bin/g++-7 $(CXX_DEFINES) $(CXX_INCLUDES) $(CXX_FLAGS) -S /home/prashant/Documents/Git/ForkDSPH/DualSPHysics/src/source/JPartOutBi4Save.cpp -o CMakeFiles/DualSPHysics5.0CPU_linux64.dir/JPartOutBi4Save.cpp.s

CMakeFiles/DualSPHysics5.0CPU_linux64.dir/JCaseCtes.cpp.o: CMakeFiles/DualSPHysics5.0CPU_linux64.dir/flags.make
CMakeFiles/DualSPHysics5.0CPU_linux64.dir/JCaseCtes.cpp.o: /home/prashant/Documents/Git/ForkDSPH/DualSPHysics/src/source/JCaseCtes.cpp
	@$(CMAKE_COMMAND) -E cmake_echo_color --switch=$(COLOR) --green --progress-dir=/home/prashant/Documents/Git/ForkDSPH/DualSPHysics/src/build-source-Imported_Kit-Debug/CMakeFiles --progress-num=$(CMAKE_PROGRESS_37) "Building CXX object CMakeFiles/DualSPHysics5.0CPU_linux64.dir/JCaseCtes.cpp.o"
	/usr/bin/g++-7  $(CXX_DEFINES) $(CXX_INCLUDES) $(CXX_FLAGS) -o CMakeFiles/DualSPHysics5.0CPU_linux64.dir/JCaseCtes.cpp.o -c /home/prashant/Documents/Git/ForkDSPH/DualSPHysics/src/source/JCaseCtes.cpp

CMakeFiles/DualSPHysics5.0CPU_linux64.dir/JCaseCtes.cpp.i: cmake_force
	@$(CMAKE_COMMAND) -E cmake_echo_color --switch=$(COLOR) --green "Preprocessing CXX source to CMakeFiles/DualSPHysics5.0CPU_linux64.dir/JCaseCtes.cpp.i"
	/usr/bin/g++-7 $(CXX_DEFINES) $(CXX_INCLUDES) $(CXX_FLAGS) -E /home/prashant/Documents/Git/ForkDSPH/DualSPHysics/src/source/JCaseCtes.cpp > CMakeFiles/DualSPHysics5.0CPU_linux64.dir/JCaseCtes.cpp.i

CMakeFiles/DualSPHysics5.0CPU_linux64.dir/JCaseCtes.cpp.s: cmake_force
	@$(CMAKE_COMMAND) -E cmake_echo_color --switch=$(COLOR) --green "Compiling CXX source to assembly CMakeFiles/DualSPHysics5.0CPU_linux64.dir/JCaseCtes.cpp.s"
	/usr/bin/g++-7 $(CXX_DEFINES) $(CXX_INCLUDES) $(CXX_FLAGS) -S /home/prashant/Documents/Git/ForkDSPH/DualSPHysics/src/source/JCaseCtes.cpp -o CMakeFiles/DualSPHysics5.0CPU_linux64.dir/JCaseCtes.cpp.s

CMakeFiles/DualSPHysics5.0CPU_linux64.dir/JCaseEParms.cpp.o: CMakeFiles/DualSPHysics5.0CPU_linux64.dir/flags.make
CMakeFiles/DualSPHysics5.0CPU_linux64.dir/JCaseEParms.cpp.o: /home/prashant/Documents/Git/ForkDSPH/DualSPHysics/src/source/JCaseEParms.cpp
	@$(CMAKE_COMMAND) -E cmake_echo_color --switch=$(COLOR) --green --progress-dir=/home/prashant/Documents/Git/ForkDSPH/DualSPHysics/src/build-source-Imported_Kit-Debug/CMakeFiles --progress-num=$(CMAKE_PROGRESS_38) "Building CXX object CMakeFiles/DualSPHysics5.0CPU_linux64.dir/JCaseEParms.cpp.o"
	/usr/bin/g++-7  $(CXX_DEFINES) $(CXX_INCLUDES) $(CXX_FLAGS) -o CMakeFiles/DualSPHysics5.0CPU_linux64.dir/JCaseEParms.cpp.o -c /home/prashant/Documents/Git/ForkDSPH/DualSPHysics/src/source/JCaseEParms.cpp

CMakeFiles/DualSPHysics5.0CPU_linux64.dir/JCaseEParms.cpp.i: cmake_force
	@$(CMAKE_COMMAND) -E cmake_echo_color --switch=$(COLOR) --green "Preprocessing CXX source to CMakeFiles/DualSPHysics5.0CPU_linux64.dir/JCaseEParms.cpp.i"
	/usr/bin/g++-7 $(CXX_DEFINES) $(CXX_INCLUDES) $(CXX_FLAGS) -E /home/prashant/Documents/Git/ForkDSPH/DualSPHysics/src/source/JCaseEParms.cpp > CMakeFiles/DualSPHysics5.0CPU_linux64.dir/JCaseEParms.cpp.i

CMakeFiles/DualSPHysics5.0CPU_linux64.dir/JCaseEParms.cpp.s: cmake_force
	@$(CMAKE_COMMAND) -E cmake_echo_color --switch=$(COLOR) --green "Compiling CXX source to assembly CMakeFiles/DualSPHysics5.0CPU_linux64.dir/JCaseEParms.cpp.s"
	/usr/bin/g++-7 $(CXX_DEFINES) $(CXX_INCLUDES) $(CXX_FLAGS) -S /home/prashant/Documents/Git/ForkDSPH/DualSPHysics/src/source/JCaseEParms.cpp -o CMakeFiles/DualSPHysics5.0CPU_linux64.dir/JCaseEParms.cpp.s

CMakeFiles/DualSPHysics5.0CPU_linux64.dir/JCaseParts.cpp.o: CMakeFiles/DualSPHysics5.0CPU_linux64.dir/flags.make
CMakeFiles/DualSPHysics5.0CPU_linux64.dir/JCaseParts.cpp.o: /home/prashant/Documents/Git/ForkDSPH/DualSPHysics/src/source/JCaseParts.cpp
	@$(CMAKE_COMMAND) -E cmake_echo_color --switch=$(COLOR) --green --progress-dir=/home/prashant/Documents/Git/ForkDSPH/DualSPHysics/src/build-source-Imported_Kit-Debug/CMakeFiles --progress-num=$(CMAKE_PROGRESS_39) "Building CXX object CMakeFiles/DualSPHysics5.0CPU_linux64.dir/JCaseParts.cpp.o"
	/usr/bin/g++-7  $(CXX_DEFINES) $(CXX_INCLUDES) $(CXX_FLAGS) -o CMakeFiles/DualSPHysics5.0CPU_linux64.dir/JCaseParts.cpp.o -c /home/prashant/Documents/Git/ForkDSPH/DualSPHysics/src/source/JCaseParts.cpp

CMakeFiles/DualSPHysics5.0CPU_linux64.dir/JCaseParts.cpp.i: cmake_force
	@$(CMAKE_COMMAND) -E cmake_echo_color --switch=$(COLOR) --green "Preprocessing CXX source to CMakeFiles/DualSPHysics5.0CPU_linux64.dir/JCaseParts.cpp.i"
	/usr/bin/g++-7 $(CXX_DEFINES) $(CXX_INCLUDES) $(CXX_FLAGS) -E /home/prashant/Documents/Git/ForkDSPH/DualSPHysics/src/source/JCaseParts.cpp > CMakeFiles/DualSPHysics5.0CPU_linux64.dir/JCaseParts.cpp.i

CMakeFiles/DualSPHysics5.0CPU_linux64.dir/JCaseParts.cpp.s: cmake_force
	@$(CMAKE_COMMAND) -E cmake_echo_color --switch=$(COLOR) --green "Compiling CXX source to assembly CMakeFiles/DualSPHysics5.0CPU_linux64.dir/JCaseParts.cpp.s"
	/usr/bin/g++-7 $(CXX_DEFINES) $(CXX_INCLUDES) $(CXX_FLAGS) -S /home/prashant/Documents/Git/ForkDSPH/DualSPHysics/src/source/JCaseParts.cpp -o CMakeFiles/DualSPHysics5.0CPU_linux64.dir/JCaseParts.cpp.s

CMakeFiles/DualSPHysics5.0CPU_linux64.dir/JCaseProperties.cpp.o: CMakeFiles/DualSPHysics5.0CPU_linux64.dir/flags.make
CMakeFiles/DualSPHysics5.0CPU_linux64.dir/JCaseProperties.cpp.o: /home/prashant/Documents/Git/ForkDSPH/DualSPHysics/src/source/JCaseProperties.cpp
	@$(CMAKE_COMMAND) -E cmake_echo_color --switch=$(COLOR) --green --progress-dir=/home/prashant/Documents/Git/ForkDSPH/DualSPHysics/src/build-source-Imported_Kit-Debug/CMakeFiles --progress-num=$(CMAKE_PROGRESS_40) "Building CXX object CMakeFiles/DualSPHysics5.0CPU_linux64.dir/JCaseProperties.cpp.o"
	/usr/bin/g++-7  $(CXX_DEFINES) $(CXX_INCLUDES) $(CXX_FLAGS) -o CMakeFiles/DualSPHysics5.0CPU_linux64.dir/JCaseProperties.cpp.o -c /home/prashant/Documents/Git/ForkDSPH/DualSPHysics/src/source/JCaseProperties.cpp

CMakeFiles/DualSPHysics5.0CPU_linux64.dir/JCaseProperties.cpp.i: cmake_force
	@$(CMAKE_COMMAND) -E cmake_echo_color --switch=$(COLOR) --green "Preprocessing CXX source to CMakeFiles/DualSPHysics5.0CPU_linux64.dir/JCaseProperties.cpp.i"
	/usr/bin/g++-7 $(CXX_DEFINES) $(CXX_INCLUDES) $(CXX_FLAGS) -E /home/prashant/Documents/Git/ForkDSPH/DualSPHysics/src/source/JCaseProperties.cpp > CMakeFiles/DualSPHysics5.0CPU_linux64.dir/JCaseProperties.cpp.i

CMakeFiles/DualSPHysics5.0CPU_linux64.dir/JCaseProperties.cpp.s: cmake_force
	@$(CMAKE_COMMAND) -E cmake_echo_color --switch=$(COLOR) --green "Compiling CXX source to assembly CMakeFiles/DualSPHysics5.0CPU_linux64.dir/JCaseProperties.cpp.s"
	/usr/bin/g++-7 $(CXX_DEFINES) $(CXX_INCLUDES) $(CXX_FLAGS) -S /home/prashant/Documents/Git/ForkDSPH/DualSPHysics/src/source/JCaseProperties.cpp -o CMakeFiles/DualSPHysics5.0CPU_linux64.dir/JCaseProperties.cpp.s

CMakeFiles/DualSPHysics5.0CPU_linux64.dir/JCaseUserVars.cpp.o: CMakeFiles/DualSPHysics5.0CPU_linux64.dir/flags.make
CMakeFiles/DualSPHysics5.0CPU_linux64.dir/JCaseUserVars.cpp.o: /home/prashant/Documents/Git/ForkDSPH/DualSPHysics/src/source/JCaseUserVars.cpp
	@$(CMAKE_COMMAND) -E cmake_echo_color --switch=$(COLOR) --green --progress-dir=/home/prashant/Documents/Git/ForkDSPH/DualSPHysics/src/build-source-Imported_Kit-Debug/CMakeFiles --progress-num=$(CMAKE_PROGRESS_41) "Building CXX object CMakeFiles/DualSPHysics5.0CPU_linux64.dir/JCaseUserVars.cpp.o"
	/usr/bin/g++-7  $(CXX_DEFINES) $(CXX_INCLUDES) $(CXX_FLAGS) -o CMakeFiles/DualSPHysics5.0CPU_linux64.dir/JCaseUserVars.cpp.o -c /home/prashant/Documents/Git/ForkDSPH/DualSPHysics/src/source/JCaseUserVars.cpp

CMakeFiles/DualSPHysics5.0CPU_linux64.dir/JCaseUserVars.cpp.i: cmake_force
	@$(CMAKE_COMMAND) -E cmake_echo_color --switch=$(COLOR) --green "Preprocessing CXX source to CMakeFiles/DualSPHysics5.0CPU_linux64.dir/JCaseUserVars.cpp.i"
	/usr/bin/g++-7 $(CXX_DEFINES) $(CXX_INCLUDES) $(CXX_FLAGS) -E /home/prashant/Documents/Git/ForkDSPH/DualSPHysics/src/source/JCaseUserVars.cpp > CMakeFiles/DualSPHysics5.0CPU_linux64.dir/JCaseUserVars.cpp.i

CMakeFiles/DualSPHysics5.0CPU_linux64.dir/JCaseUserVars.cpp.s: cmake_force
	@$(CMAKE_COMMAND) -E cmake_echo_color --switch=$(COLOR) --green "Compiling CXX source to assembly CMakeFiles/DualSPHysics5.0CPU_linux64.dir/JCaseUserVars.cpp.s"
	/usr/bin/g++-7 $(CXX_DEFINES) $(CXX_INCLUDES) $(CXX_FLAGS) -S /home/prashant/Documents/Git/ForkDSPH/DualSPHysics/src/source/JCaseUserVars.cpp -o CMakeFiles/DualSPHysics5.0CPU_linux64.dir/JCaseUserVars.cpp.s

CMakeFiles/DualSPHysics5.0CPU_linux64.dir/JCaseVtkOut.cpp.o: CMakeFiles/DualSPHysics5.0CPU_linux64.dir/flags.make
CMakeFiles/DualSPHysics5.0CPU_linux64.dir/JCaseVtkOut.cpp.o: /home/prashant/Documents/Git/ForkDSPH/DualSPHysics/src/source/JCaseVtkOut.cpp
	@$(CMAKE_COMMAND) -E cmake_echo_color --switch=$(COLOR) --green --progress-dir=/home/prashant/Documents/Git/ForkDSPH/DualSPHysics/src/build-source-Imported_Kit-Debug/CMakeFiles --progress-num=$(CMAKE_PROGRESS_42) "Building CXX object CMakeFiles/DualSPHysics5.0CPU_linux64.dir/JCaseVtkOut.cpp.o"
	/usr/bin/g++-7  $(CXX_DEFINES) $(CXX_INCLUDES) $(CXX_FLAGS) -o CMakeFiles/DualSPHysics5.0CPU_linux64.dir/JCaseVtkOut.cpp.o -c /home/prashant/Documents/Git/ForkDSPH/DualSPHysics/src/source/JCaseVtkOut.cpp

CMakeFiles/DualSPHysics5.0CPU_linux64.dir/JCaseVtkOut.cpp.i: cmake_force
	@$(CMAKE_COMMAND) -E cmake_echo_color --switch=$(COLOR) --green "Preprocessing CXX source to CMakeFiles/DualSPHysics5.0CPU_linux64.dir/JCaseVtkOut.cpp.i"
	/usr/bin/g++-7 $(CXX_DEFINES) $(CXX_INCLUDES) $(CXX_FLAGS) -E /home/prashant/Documents/Git/ForkDSPH/DualSPHysics/src/source/JCaseVtkOut.cpp > CMakeFiles/DualSPHysics5.0CPU_linux64.dir/JCaseVtkOut.cpp.i

CMakeFiles/DualSPHysics5.0CPU_linux64.dir/JCaseVtkOut.cpp.s: cmake_force
	@$(CMAKE_COMMAND) -E cmake_echo_color --switch=$(COLOR) --green "Compiling CXX source to assembly CMakeFiles/DualSPHysics5.0CPU_linux64.dir/JCaseVtkOut.cpp.s"
	/usr/bin/g++-7 $(CXX_DEFINES) $(CXX_INCLUDES) $(CXX_FLAGS) -S /home/prashant/Documents/Git/ForkDSPH/DualSPHysics/src/source/JCaseVtkOut.cpp -o CMakeFiles/DualSPHysics5.0CPU_linux64.dir/JCaseVtkOut.cpp.s

CMakeFiles/DualSPHysics5.0CPU_linux64.dir/JArraysCpu.cpp.o: CMakeFiles/DualSPHysics5.0CPU_linux64.dir/flags.make
CMakeFiles/DualSPHysics5.0CPU_linux64.dir/JArraysCpu.cpp.o: /home/prashant/Documents/Git/ForkDSPH/DualSPHysics/src/source/JArraysCpu.cpp
	@$(CMAKE_COMMAND) -E cmake_echo_color --switch=$(COLOR) --green --progress-dir=/home/prashant/Documents/Git/ForkDSPH/DualSPHysics/src/build-source-Imported_Kit-Debug/CMakeFiles --progress-num=$(CMAKE_PROGRESS_43) "Building CXX object CMakeFiles/DualSPHysics5.0CPU_linux64.dir/JArraysCpu.cpp.o"
	/usr/bin/g++-7  $(CXX_DEFINES) $(CXX_INCLUDES) $(CXX_FLAGS) -o CMakeFiles/DualSPHysics5.0CPU_linux64.dir/JArraysCpu.cpp.o -c /home/prashant/Documents/Git/ForkDSPH/DualSPHysics/src/source/JArraysCpu.cpp

CMakeFiles/DualSPHysics5.0CPU_linux64.dir/JArraysCpu.cpp.i: cmake_force
	@$(CMAKE_COMMAND) -E cmake_echo_color --switch=$(COLOR) --green "Preprocessing CXX source to CMakeFiles/DualSPHysics5.0CPU_linux64.dir/JArraysCpu.cpp.i"
	/usr/bin/g++-7 $(CXX_DEFINES) $(CXX_INCLUDES) $(CXX_FLAGS) -E /home/prashant/Documents/Git/ForkDSPH/DualSPHysics/src/source/JArraysCpu.cpp > CMakeFiles/DualSPHysics5.0CPU_linux64.dir/JArraysCpu.cpp.i

CMakeFiles/DualSPHysics5.0CPU_linux64.dir/JArraysCpu.cpp.s: cmake_force
	@$(CMAKE_COMMAND) -E cmake_echo_color --switch=$(COLOR) --green "Compiling CXX source to assembly CMakeFiles/DualSPHysics5.0CPU_linux64.dir/JArraysCpu.cpp.s"
	/usr/bin/g++-7 $(CXX_DEFINES) $(CXX_INCLUDES) $(CXX_FLAGS) -S /home/prashant/Documents/Git/ForkDSPH/DualSPHysics/src/source/JArraysCpu.cpp -o CMakeFiles/DualSPHysics5.0CPU_linux64.dir/JArraysCpu.cpp.s

CMakeFiles/DualSPHysics5.0CPU_linux64.dir/JCellDivCpu.cpp.o: CMakeFiles/DualSPHysics5.0CPU_linux64.dir/flags.make
CMakeFiles/DualSPHysics5.0CPU_linux64.dir/JCellDivCpu.cpp.o: /home/prashant/Documents/Git/ForkDSPH/DualSPHysics/src/source/JCellDivCpu.cpp
	@$(CMAKE_COMMAND) -E cmake_echo_color --switch=$(COLOR) --green --progress-dir=/home/prashant/Documents/Git/ForkDSPH/DualSPHysics/src/build-source-Imported_Kit-Debug/CMakeFiles --progress-num=$(CMAKE_PROGRESS_44) "Building CXX object CMakeFiles/DualSPHysics5.0CPU_linux64.dir/JCellDivCpu.cpp.o"
	/usr/bin/g++-7  $(CXX_DEFINES) $(CXX_INCLUDES) $(CXX_FLAGS) -o CMakeFiles/DualSPHysics5.0CPU_linux64.dir/JCellDivCpu.cpp.o -c /home/prashant/Documents/Git/ForkDSPH/DualSPHysics/src/source/JCellDivCpu.cpp

CMakeFiles/DualSPHysics5.0CPU_linux64.dir/JCellDivCpu.cpp.i: cmake_force
	@$(CMAKE_COMMAND) -E cmake_echo_color --switch=$(COLOR) --green "Preprocessing CXX source to CMakeFiles/DualSPHysics5.0CPU_linux64.dir/JCellDivCpu.cpp.i"
	/usr/bin/g++-7 $(CXX_DEFINES) $(CXX_INCLUDES) $(CXX_FLAGS) -E /home/prashant/Documents/Git/ForkDSPH/DualSPHysics/src/source/JCellDivCpu.cpp > CMakeFiles/DualSPHysics5.0CPU_linux64.dir/JCellDivCpu.cpp.i

CMakeFiles/DualSPHysics5.0CPU_linux64.dir/JCellDivCpu.cpp.s: cmake_force
	@$(CMAKE_COMMAND) -E cmake_echo_color --switch=$(COLOR) --green "Compiling CXX source to assembly CMakeFiles/DualSPHysics5.0CPU_linux64.dir/JCellDivCpu.cpp.s"
	/usr/bin/g++-7 $(CXX_DEFINES) $(CXX_INCLUDES) $(CXX_FLAGS) -S /home/prashant/Documents/Git/ForkDSPH/DualSPHysics/src/source/JCellDivCpu.cpp -o CMakeFiles/DualSPHysics5.0CPU_linux64.dir/JCellDivCpu.cpp.s

CMakeFiles/DualSPHysics5.0CPU_linux64.dir/JSphCfgRun.cpp.o: CMakeFiles/DualSPHysics5.0CPU_linux64.dir/flags.make
CMakeFiles/DualSPHysics5.0CPU_linux64.dir/JSphCfgRun.cpp.o: /home/prashant/Documents/Git/ForkDSPH/DualSPHysics/src/source/JSphCfgRun.cpp
	@$(CMAKE_COMMAND) -E cmake_echo_color --switch=$(COLOR) --green --progress-dir=/home/prashant/Documents/Git/ForkDSPH/DualSPHysics/src/build-source-Imported_Kit-Debug/CMakeFiles --progress-num=$(CMAKE_PROGRESS_45) "Building CXX object CMakeFiles/DualSPHysics5.0CPU_linux64.dir/JSphCfgRun.cpp.o"
	/usr/bin/g++-7  $(CXX_DEFINES) $(CXX_INCLUDES) $(CXX_FLAGS) -o CMakeFiles/DualSPHysics5.0CPU_linux64.dir/JSphCfgRun.cpp.o -c /home/prashant/Documents/Git/ForkDSPH/DualSPHysics/src/source/JSphCfgRun.cpp

CMakeFiles/DualSPHysics5.0CPU_linux64.dir/JSphCfgRun.cpp.i: cmake_force
	@$(CMAKE_COMMAND) -E cmake_echo_color --switch=$(COLOR) --green "Preprocessing CXX source to CMakeFiles/DualSPHysics5.0CPU_linux64.dir/JSphCfgRun.cpp.i"
	/usr/bin/g++-7 $(CXX_DEFINES) $(CXX_INCLUDES) $(CXX_FLAGS) -E /home/prashant/Documents/Git/ForkDSPH/DualSPHysics/src/source/JSphCfgRun.cpp > CMakeFiles/DualSPHysics5.0CPU_linux64.dir/JSphCfgRun.cpp.i

CMakeFiles/DualSPHysics5.0CPU_linux64.dir/JSphCfgRun.cpp.s: cmake_force
	@$(CMAKE_COMMAND) -E cmake_echo_color --switch=$(COLOR) --green "Compiling CXX source to assembly CMakeFiles/DualSPHysics5.0CPU_linux64.dir/JSphCfgRun.cpp.s"
	/usr/bin/g++-7 $(CXX_DEFINES) $(CXX_INCLUDES) $(CXX_FLAGS) -S /home/prashant/Documents/Git/ForkDSPH/DualSPHysics/src/source/JSphCfgRun.cpp -o CMakeFiles/DualSPHysics5.0CPU_linux64.dir/JSphCfgRun.cpp.s

CMakeFiles/DualSPHysics5.0CPU_linux64.dir/JDsDamping.cpp.o: CMakeFiles/DualSPHysics5.0CPU_linux64.dir/flags.make
CMakeFiles/DualSPHysics5.0CPU_linux64.dir/JDsDamping.cpp.o: /home/prashant/Documents/Git/ForkDSPH/DualSPHysics/src/source/JDsDamping.cpp
	@$(CMAKE_COMMAND) -E cmake_echo_color --switch=$(COLOR) --green --progress-dir=/home/prashant/Documents/Git/ForkDSPH/DualSPHysics/src/build-source-Imported_Kit-Debug/CMakeFiles --progress-num=$(CMAKE_PROGRESS_46) "Building CXX object CMakeFiles/DualSPHysics5.0CPU_linux64.dir/JDsDamping.cpp.o"
	/usr/bin/g++-7  $(CXX_DEFINES) $(CXX_INCLUDES) $(CXX_FLAGS) -o CMakeFiles/DualSPHysics5.0CPU_linux64.dir/JDsDamping.cpp.o -c /home/prashant/Documents/Git/ForkDSPH/DualSPHysics/src/source/JDsDamping.cpp

CMakeFiles/DualSPHysics5.0CPU_linux64.dir/JDsDamping.cpp.i: cmake_force
	@$(CMAKE_COMMAND) -E cmake_echo_color --switch=$(COLOR) --green "Preprocessing CXX source to CMakeFiles/DualSPHysics5.0CPU_linux64.dir/JDsDamping.cpp.i"
	/usr/bin/g++-7 $(CXX_DEFINES) $(CXX_INCLUDES) $(CXX_FLAGS) -E /home/prashant/Documents/Git/ForkDSPH/DualSPHysics/src/source/JDsDamping.cpp > CMakeFiles/DualSPHysics5.0CPU_linux64.dir/JDsDamping.cpp.i

CMakeFiles/DualSPHysics5.0CPU_linux64.dir/JDsDamping.cpp.s: cmake_force
	@$(CMAKE_COMMAND) -E cmake_echo_color --switch=$(COLOR) --green "Compiling CXX source to assembly CMakeFiles/DualSPHysics5.0CPU_linux64.dir/JDsDamping.cpp.s"
	/usr/bin/g++-7 $(CXX_DEFINES) $(CXX_INCLUDES) $(CXX_FLAGS) -S /home/prashant/Documents/Git/ForkDSPH/DualSPHysics/src/source/JDsDamping.cpp -o CMakeFiles/DualSPHysics5.0CPU_linux64.dir/JDsDamping.cpp.s

CMakeFiles/DualSPHysics5.0CPU_linux64.dir/JDsGaugeItem.cpp.o: CMakeFiles/DualSPHysics5.0CPU_linux64.dir/flags.make
CMakeFiles/DualSPHysics5.0CPU_linux64.dir/JDsGaugeItem.cpp.o: /home/prashant/Documents/Git/ForkDSPH/DualSPHysics/src/source/JDsGaugeItem.cpp
	@$(CMAKE_COMMAND) -E cmake_echo_color --switch=$(COLOR) --green --progress-dir=/home/prashant/Documents/Git/ForkDSPH/DualSPHysics/src/build-source-Imported_Kit-Debug/CMakeFiles --progress-num=$(CMAKE_PROGRESS_47) "Building CXX object CMakeFiles/DualSPHysics5.0CPU_linux64.dir/JDsGaugeItem.cpp.o"
	/usr/bin/g++-7  $(CXX_DEFINES) $(CXX_INCLUDES) $(CXX_FLAGS) -o CMakeFiles/DualSPHysics5.0CPU_linux64.dir/JDsGaugeItem.cpp.o -c /home/prashant/Documents/Git/ForkDSPH/DualSPHysics/src/source/JDsGaugeItem.cpp

CMakeFiles/DualSPHysics5.0CPU_linux64.dir/JDsGaugeItem.cpp.i: cmake_force
	@$(CMAKE_COMMAND) -E cmake_echo_color --switch=$(COLOR) --green "Preprocessing CXX source to CMakeFiles/DualSPHysics5.0CPU_linux64.dir/JDsGaugeItem.cpp.i"
	/usr/bin/g++-7 $(CXX_DEFINES) $(CXX_INCLUDES) $(CXX_FLAGS) -E /home/prashant/Documents/Git/ForkDSPH/DualSPHysics/src/source/JDsGaugeItem.cpp > CMakeFiles/DualSPHysics5.0CPU_linux64.dir/JDsGaugeItem.cpp.i

CMakeFiles/DualSPHysics5.0CPU_linux64.dir/JDsGaugeItem.cpp.s: cmake_force
	@$(CMAKE_COMMAND) -E cmake_echo_color --switch=$(COLOR) --green "Compiling CXX source to assembly CMakeFiles/DualSPHysics5.0CPU_linux64.dir/JDsGaugeItem.cpp.s"
	/usr/bin/g++-7 $(CXX_DEFINES) $(CXX_INCLUDES) $(CXX_FLAGS) -S /home/prashant/Documents/Git/ForkDSPH/DualSPHysics/src/source/JDsGaugeItem.cpp -o CMakeFiles/DualSPHysics5.0CPU_linux64.dir/JDsGaugeItem.cpp.s

CMakeFiles/DualSPHysics5.0CPU_linux64.dir/JDsGaugeSystem.cpp.o: CMakeFiles/DualSPHysics5.0CPU_linux64.dir/flags.make
CMakeFiles/DualSPHysics5.0CPU_linux64.dir/JDsGaugeSystem.cpp.o: /home/prashant/Documents/Git/ForkDSPH/DualSPHysics/src/source/JDsGaugeSystem.cpp
	@$(CMAKE_COMMAND) -E cmake_echo_color --switch=$(COLOR) --green --progress-dir=/home/prashant/Documents/Git/ForkDSPH/DualSPHysics/src/build-source-Imported_Kit-Debug/CMakeFiles --progress-num=$(CMAKE_PROGRESS_48) "Building CXX object CMakeFiles/DualSPHysics5.0CPU_linux64.dir/JDsGaugeSystem.cpp.o"
	/usr/bin/g++-7  $(CXX_DEFINES) $(CXX_INCLUDES) $(CXX_FLAGS) -o CMakeFiles/DualSPHysics5.0CPU_linux64.dir/JDsGaugeSystem.cpp.o -c /home/prashant/Documents/Git/ForkDSPH/DualSPHysics/src/source/JDsGaugeSystem.cpp

CMakeFiles/DualSPHysics5.0CPU_linux64.dir/JDsGaugeSystem.cpp.i: cmake_force
	@$(CMAKE_COMMAND) -E cmake_echo_color --switch=$(COLOR) --green "Preprocessing CXX source to CMakeFiles/DualSPHysics5.0CPU_linux64.dir/JDsGaugeSystem.cpp.i"
	/usr/bin/g++-7 $(CXX_DEFINES) $(CXX_INCLUDES) $(CXX_FLAGS) -E /home/prashant/Documents/Git/ForkDSPH/DualSPHysics/src/source/JDsGaugeSystem.cpp > CMakeFiles/DualSPHysics5.0CPU_linux64.dir/JDsGaugeSystem.cpp.i

CMakeFiles/DualSPHysics5.0CPU_linux64.dir/JDsGaugeSystem.cpp.s: cmake_force
	@$(CMAKE_COMMAND) -E cmake_echo_color --switch=$(COLOR) --green "Compiling CXX source to assembly CMakeFiles/DualSPHysics5.0CPU_linux64.dir/JDsGaugeSystem.cpp.s"
	/usr/bin/g++-7 $(CXX_DEFINES) $(CXX_INCLUDES) $(CXX_FLAGS) -S /home/prashant/Documents/Git/ForkDSPH/DualSPHysics/src/source/JDsGaugeSystem.cpp -o CMakeFiles/DualSPHysics5.0CPU_linux64.dir/JDsGaugeSystem.cpp.s

CMakeFiles/DualSPHysics5.0CPU_linux64.dir/JDsPartsOut.cpp.o: CMakeFiles/DualSPHysics5.0CPU_linux64.dir/flags.make
CMakeFiles/DualSPHysics5.0CPU_linux64.dir/JDsPartsOut.cpp.o: /home/prashant/Documents/Git/ForkDSPH/DualSPHysics/src/source/JDsPartsOut.cpp
	@$(CMAKE_COMMAND) -E cmake_echo_color --switch=$(COLOR) --green --progress-dir=/home/prashant/Documents/Git/ForkDSPH/DualSPHysics/src/build-source-Imported_Kit-Debug/CMakeFiles --progress-num=$(CMAKE_PROGRESS_49) "Building CXX object CMakeFiles/DualSPHysics5.0CPU_linux64.dir/JDsPartsOut.cpp.o"
[...]

CMakeFiles/DualSPHysics5.0CPU_linux64.dir/JNormalsMarrone.cpp.s: cmake_force
	@$(CMAKE_COMMAND) -E cmake_echo_color --switch=$(COLOR) --green "Compiling CXX source to assembly CMakeFiles/DualSPHysics5.0CPU_linux64.dir/JNormalsMarrone.cpp.s"
	/usr/bin/g++-7 $(CXX_DEFINES) $(CXX_INCLUDES) $(CXX_FLAGS) -S /home/prashant/Documents/Git/ForkDSPH/DualSPHysics/src/source/JNormalsMarrone.cpp -o CMakeFiles/DualSPHysics5.0CPU_linux64.dir/JNormalsMarrone.cpp.s

# Object files for target DualSPHysics5.0CPU_linux64
DualSPHysics5_0CPU_linux64_OBJECTS = \
"CMakeFiles/DualSPHysics5.0CPU_linux64.dir/JXml.cpp.o" \
"CMakeFiles/DualSPHysics5.0CPU_linux64.dir/tinystr.cpp.o" \
"CMakeFiles/DualSPHysics5.0CPU_linux64.dir/tinyxml.cpp.o" \
"CMakeFiles/DualSPHysics5.0CPU_linux64.dir/tinyxmlerror.cpp.o" \
"CMakeFiles/DualSPHysics5.0CPU_linux64.dir/tinyxmlparser.cpp.o" \
"CMakeFiles/DualSPHysics5.0CPU_linux64.dir/JMotion.cpp.o" \
"CMakeFiles/DualSPHysics5.0CPU_linux64.dir/JMotionList.cpp.o" \
"CMakeFiles/DualSPHysics5.0CPU_linux64.dir/JMotionMov.cpp.o" \
"CMakeFiles/DualSPHysics5.0CPU_linux64.dir/JMotionObj.cpp.o" \
"CMakeFiles/DualSPHysics5.0CPU_linux64.dir/JMotionPos.cpp.o" \
"CMakeFiles/DualSPHysics5.0CPU_linux64.dir/JDsMotion.cpp.o" \
"CMakeFiles/DualSPHysics5.0CPU_linux64.dir/Functions.cpp.o" \
"CMakeFiles/DualSPHysics5.0CPU_linux64.dir/FunctionsGeo3d.cpp.o" \
"CMakeFiles/DualSPHysics5.0CPU_linux64.dir/FunSphKernelsCfg.cpp.o" \
"CMakeFiles/DualSPHysics5.0CPU_linux64.dir/JAppInfo.cpp.o" \
"CMakeFiles/DualSPHysics5.0CPU_linux64.dir/JBinaryData.cpp.o" \
"CMakeFiles/DualSPHysics5.0CPU_linux64.dir/JCfgRunBase.cpp.o" \
"CMakeFiles/DualSPHysics5.0CPU_linux64.dir/JDataArrays.cpp.o" \
"CMakeFiles/DualSPHysics5.0CPU_linux64.dir/JException.cpp.o" \
"CMakeFiles/DualSPHysics5.0CPU_linux64.dir/JLinearValue.cpp.o" \
"CMakeFiles/DualSPHysics5.0CPU_linux64.dir/JLog2.cpp.o" \
"CMakeFiles/DualSPHysics5.0CPU_linux64.dir/JMeanValues.cpp.o" \
"CMakeFiles/DualSPHysics5.0CPU_linux64.dir/JObject.cpp.o" \
"CMakeFiles/DualSPHysics5.0CPU_linux64.dir/JOutputCsv.cpp.o" \
"CMakeFiles/DualSPHysics5.0CPU_linux64.dir/JRadixSort.cpp.o" \
"CMakeFiles/DualSPHysics5.0CPU_linux64.dir/JRangeFilter.cpp.o" \
"CMakeFiles/DualSPHysics5.0CPU_linux64.dir/JReadDatafile.cpp.o" \
"CMakeFiles/DualSPHysics5.0CPU_linux64.dir/JSaveCsv2.cpp.o" \
"CMakeFiles/DualSPHysics5.0CPU_linux64.dir/JTimeControl.cpp.o" \
"CMakeFiles/DualSPHysics5.0CPU_linux64.dir/randomc.cpp.o" \
"CMakeFiles/DualSPHysics5.0CPU_linux64.dir/JDsphConfig.cpp.o" \
"CMakeFiles/DualSPHysics5.0CPU_linux64.dir/JDsPips.cpp.o" \
"CMakeFiles/DualSPHysics5.0CPU_linux64.dir/JPartDataBi4.cpp.o" \
"CMakeFiles/DualSPHysics5.0CPU_linux64.dir/JPartDataHead.cpp.o" \
"CMakeFiles/DualSPHysics5.0CPU_linux64.dir/JPartFloatBi4.cpp.o" \
"CMakeFiles/DualSPHysics5.0CPU_linux64.dir/JPartOutBi4Save.cpp.o" \
"CMakeFiles/DualSPHysics5.0CPU_linux64.dir/JCaseCtes.cpp.o" \
"CMakeFiles/DualSPHysics5.0CPU_linux64.dir/JCaseEParms.cpp.o" \
"CMakeFiles/DualSPHysics5.0CPU_linux64.dir/JCaseParts.cpp.o" \
"CMakeFiles/DualSPHysics5.0CPU_linux64.dir/JCaseProperties.cpp.o" \
"CMakeFiles/DualSPHysics5.0CPU_linux64.dir/JCaseUserVars.cpp.o" \
"CMakeFiles/DualSPHysics5.0CPU_linux64.dir/JCaseVtkOut.cpp.o" \
"CMakeFiles/DualSPHysics5.0CPU_linux64.dir/JArraysCpu.cpp.o" \
"CMakeFiles/DualSPHysics5.0CPU_linux64.dir/JCellDivCpu.cpp.o" \
"CMakeFiles/DualSPHysics5.0CPU_linux64.dir/JSphCfgRun.cpp.o" \
"CMakeFiles/DualSPHysics5.0CPU_linux64.dir/JDsDamping.cpp.o" \
"CMakeFiles/DualSPHysics5.0CPU_linux64.dir/JDsGaugeItem.cpp.o" \
"CMakeFiles/DualSPHysics5.0CPU_linux64.dir/JDsGaugeSystem.cpp.o" \
"CMakeFiles/DualSPHysics5.0CPU_linux64.dir/JDsPartsOut.cpp.o" \
"CMakeFiles/DualSPHysics5.0CPU_linux64.dir/JDsSaveDt.cpp.o" \
"CMakeFiles/DualSPHysics5.0CPU_linux64.dir/JSphShifting.cpp.o" \
"CMakeFiles/DualSPHysics5.0CPU_linux64.dir/JSph.cpp.o" \
"CMakeFiles/DualSPHysics5.0CPU_linux64.dir/JDsAccInput.cpp.o" \
"CMakeFiles/DualSPHysics5.0CPU_linux64.dir/JSphCpu.cpp.o" \
"CMakeFiles/DualSPHysics5.0CPU_linux64.dir/JDsInitialize.cpp.o" \
"CMakeFiles/DualSPHysics5.0CPU_linux64.dir/JSphMk.cpp.o" \
"CMakeFiles/DualSPHysics5.0CPU_linux64.dir/JDsPartsInit.cpp.o" \
"CMakeFiles/DualSPHysics5.0CPU_linux64.dir/JDsFixedDt.cpp.o" \
"CMakeFiles/DualSPHysics5.0CPU_linux64.dir/JDsViscoInput.cpp.o" \
"CMakeFiles/DualSPHysics5.0CPU_linux64.dir/JDsOutputTime.cpp.o" \
"CMakeFiles/DualSPHysics5.0CPU_linux64.dir/JWaveAwasZsurf.cpp.o" \
"CMakeFiles/DualSPHysics5.0CPU_linux64.dir/JWaveSpectrumGpu.cpp.o" \
"CMakeFiles/DualSPHysics5.0CPU_linux64.dir/main.cpp.o" \
"CMakeFiles/DualSPHysics5.0CPU_linux64.dir/JCellDivCpuSingle.cpp.o" \
"CMakeFiles/DualSPHysics5.0CPU_linux64.dir/JPartsLoad4.cpp.o" \
"CMakeFiles/DualSPHysics5.0CPU_linux64.dir/JSphCpuSingle.cpp.o" \
"CMakeFiles/DualSPHysics5.0CPU_linux64.dir/JMLPistonsGpu.cpp.o" \
"CMakeFiles/DualSPHysics5.0CPU_linux64.dir/JRelaxZonesGpu.cpp.o" \
"CMakeFiles/DualSPHysics5.0CPU_linux64.dir/JChronoObjects.cpp.o" \
"CMakeFiles/DualSPHysics5.0CPU_linux64.dir/JDsMooredFloatings.cpp.o" \
"CMakeFiles/DualSPHysics5.0CPU_linux64.dir/JDsFtForcePoints.cpp.o" \
"CMakeFiles/DualSPHysics5.0CPU_linux64.dir/JSphCpu_InOut.cpp.o" \
"CMakeFiles/DualSPHysics5.0CPU_linux64.dir/JSphCpuSingle_InOut.cpp.o" \
"CMakeFiles/DualSPHysics5.0CPU_linux64.dir/JSphBoundCorr.cpp.o" \
"CMakeFiles/DualSPHysics5.0CPU_linux64.dir/JSphInOut.cpp.o" \
"CMakeFiles/DualSPHysics5.0CPU_linux64.dir/JSphInOutZone.cpp.o" \
"CMakeFiles/DualSPHysics5.0CPU_linux64.dir/JSphInOutGridData.cpp.o" \
"CMakeFiles/DualSPHysics5.0CPU_linux64.dir/JSphInOutPoints.cpp.o" \
"CMakeFiles/DualSPHysics5.0CPU_linux64.dir/JSimpleNeigs.cpp.o" \
"CMakeFiles/DualSPHysics5.0CPU_linux64.dir/JPartNormalData.cpp.o" \
"CMakeFiles/DualSPHysics5.0CPU_linux64.dir/JNormalsMarrone.cpp.o"

# External object files for target DualSPHysics5.0CPU_linux64
DualSPHysics5_0CPU_linux64_EXTERNAL_OBJECTS =

/home/prashant/Documents/Git/ForkDSPH/DualSPHysics/bin/linux/DualSPHysics5.0CPU_linux64: CMakeFiles/DualSPHysics5.0CPU_linux64.dir/JXml.cpp.o
/home/prashant/Documents/Git/ForkDSPH/DualSPHysics/bin/linux/DualSPHysics5.0CPU_linux64: CMakeFiles/DualSPHysics5.0CPU_linux64.dir/tinystr.cpp.o
/home/prashant/Documents/Git/ForkDSPH/DualSPHysics/bin/linux/DualSPHysics5.0CPU_linux64: CMakeFiles/DualSPHysics5.0CPU_linux64.dir/tinyxml.cpp.o
/home/prashant/Documents/Git/ForkDSPH/DualSPHysics/bin/linux/DualSPHysics5.0CPU_linux64: CMakeFiles/DualSPHysics5.0CPU_linux64.dir/tinyxmlerror.cpp.o
/home/prashant/Documents/Git/ForkDSPH/DualSPHysics/bin/linux/DualSPHysics5.0CPU_linux64: CMakeFiles/DualSPHysics5.0CPU_linux64.dir/tinyxmlparser.cpp.o
/home/prashant/Documents/Git/ForkDSPH/DualSPHysics/bin/linux/DualSPHysics5.0CPU_linux64: CMakeFiles/DualSPHysics5.0CPU_linux64.dir/JMotion.cpp.o
/home/prashant/Documents/Git/ForkDSPH/DualSPHysics/bin/linux/DualSPHysics5.0CPU_linux64: CMakeFiles/DualSPHysics5.0CPU_linux64.dir/JMotionList.cpp.o
/home/prashant/Documents/Git/ForkDSPH/DualSPHysics/bin/linux/DualSPHysics5.0CPU_linux64: CMakeFiles/DualSPHysics5.0CPU_linux64.dir/JMotionMov.cpp.o
/home/prashant/Documents/Git/ForkDSPH/DualSPHysics/bin/linux/DualSPHysics5.0CPU_linux64: CMakeFiles/DualSPHysics5.0CPU_linux64.dir/JMotionObj.cpp.o
/home/prashant/Documents/Git/ForkDSPH/DualSPHysics/bin/linux/DualSPHysics5.0CPU_linux64: CMakeFiles/DualSPHysics5.0CPU_linux64.dir/JMotionPos.cpp.o
/home/prashant/Documents/Git/ForkDSPH/DualSPHysics/bin/linux/DualSPHysics5.0CPU_linux64: CMakeFiles/DualSPHysics5.0CPU_linux64.dir/JDsMotion.cpp.o
/home/prashant/Documents/Git/ForkDSPH/DualSPHysics/bin/linux/DualSPHysics5.0CPU_linux64: CMakeFiles/DualSPHysics5.0CPU_linux64.dir/Functions.cpp.o
/home/prashant/Documents/Git/ForkDSPH/DualSPHysics/bin/linux/DualSPHysics5.0CPU_linux64: CMakeFiles/DualSPHysics5.0CPU_linux64.dir/FunctionsGeo3d.cpp.o
/home/prashant/Documents/Git/ForkDSPH/DualSPHysics/bin/linux/DualSPHysics5.0CPU_linux64: CMakeFiles/DualSPHysics5.0CPU_linux64.dir/FunSphKernelsCfg.cpp.o
/home/prashant/Documents/Git/ForkDSPH/DualSPHysics/bin/linux/DualSPHysics5.0CPU_linux64: CMakeFiles/DualSPHysics5.0CPU_linux64.dir/JAppInfo.cpp.o
/home/prashant/Documents/Git/ForkDSPH/DualSPHysics/bin/linux/DualSPHysics5.0CPU_linux64: CMakeFiles/DualSPHysics5.0CPU_linux64.dir/JBinaryData.cpp.o
/home/prashant/Documents/Git/ForkDSPH/DualSPHysics/bin/linux/DualSPHysics5.0CPU_linux64: CMakeFiles/DualSPHysics5.0CPU_linux64.dir/JCfgRunBase.cpp.o
/home/prashant/Documents/Git/ForkDSPH/DualSPHysics/bin/linux/DualSPHysics5.0CPU_linux64: CMakeFiles/DualSPHysics5.0CPU_linux64.dir/JDataArrays.cpp.o
/home/prashant/Documents/Git/ForkDSPH/DualSPHysics/bin/linux/DualSPHysics5.0CPU_linux64: CMakeFiles/DualSPHysics5.0CPU_linux64.dir/JException.cpp.o
/home/prashant/Documents/Git/ForkDSPH/DualSPHysics/bin/linux/DualSPHysics5.0CPU_linux64: CMakeFiles/DualSPHysics5.0CPU_linux64.dir/JLinearValue.cpp.o
/home/prashant/Documents/Git/ForkDSPH/DualSPHysics/bin/linux/DualSPHysics5.0CPU_linux64: CMakeFiles/DualSPHysics5.0CPU_linux64.dir/JLog2.cpp.o
/home/prashant/Documents/Git/ForkDSPH/DualSPHysics/bin/linux/DualSPHysics5.0CPU_linux64: CMakeFiles/DualSPHysics5.0CPU_linux64.dir/JMeanValues.cpp.o
/home/prashant/Documents/Git/ForkDSPH/DualSPHysics/bin/linux/DualSPHysics5.0CPU_linux64: CMakeFiles/DualSPHysics5.0CPU_linux64.dir/JObject.cpp.o
/home/prashant/Documents/Git/ForkDSPH/DualSPHysics/bin/linux/DualSPHysics5.0CPU_linux64: CMakeFiles/DualSPHysics5.0CPU_linux64.dir/JOutputCsv.cpp.o
/home/prashant/Documents/Git/ForkDSPH/DualSPHysics/bin/linux/DualSPHysics5.0CPU_linux64: CMakeFiles/DualSPHysics5.0CPU_linux64.dir/JRadixSort.cpp.o
/home/prashant/Documents/Git/ForkDSPH/DualSPHysics/bin/linux/DualSPHysics5.0CPU_linux64: CMakeFiles/DualSPHysics5.0CPU_linux64.dir/JRangeFilter.cpp.o
/home/prashant/Documents/Git/ForkDSPH/DualSPHysics/bin/linux/DualSPHysics5.0CPU_linux64: CMakeFiles/DualSPHysics5.0CPU_linux64.dir/JReadDatafile.cpp.o
/home/prashant/Documents/Git/ForkDSPH/DualSPHysics/bin/linux/DualSPHysics5.0CPU_linux64: CMakeFiles/DualSPHysics5.0CPU_linux64.dir/JSaveCsv2.cpp.o
/home/prashant/Documents/Git/ForkDSPH/DualSPHysics/bin/linux/DualSPHysics5.0CPU_linux64: CMakeFiles/DualSPHysics5.0CPU_linux64.dir/JTimeControl.cpp.o
/home/prashant/Documents/Git/ForkDSPH/DualSPHysics/bin/linux/DualSPHysics5.0CPU_linux64: CMakeFiles/DualSPHysics5.0CPU_linux64.dir/randomc.cpp.o
/home/prashant/Documents/Git/ForkDSPH/DualSPHysics/bin/linux/DualSPHysics5.0CPU_linux64: CMakeFiles/DualSPHysics5.0CPU_linux64.dir/JDsphConfig.cpp.o
/home/prashant/Documents/Git/ForkDSPH/DualSPHysics/bin/linux/DualSPHysics5.0CPU_linux64: CMakeFiles/DualSPHysics5.0CPU_linux64.dir/JDsPips.cpp.o
/home/prashant/Documents/Git/ForkDSPH/DualSPHysics/bin/linux/DualSPHysics5.0CPU_linux64: CMakeFiles/DualSPHysics5.0CPU_linux64.dir/JPartDataBi4.cpp.o
/home/prashant/Documents/Git/ForkDSPH/DualSPHysics/bin/linux/DualSPHysics5.0CPU_linux64: CMakeFiles/DualSPHysics5.0CPU_linux64.dir/JPartDataHead.cpp.o
/home/prashant/Documents/Git/ForkDSPH/DualSPHysics/bin/linux/DualSPHysics5.0CPU_linux64: CMakeFiles/DualSPHysics5.0CPU_linux64.dir/JPartFloatBi4.cpp.o
/home/prashant/Documents/Git/ForkDSPH/DualSPHysics/bin/linux/DualSPHysics5.0CPU_linux64: CMakeFiles/DualSPHysics5.0CPU_linux64.dir/JPartOutBi4Save.cpp.o
/home/prashant/Documents/Git/ForkDSPH/DualSPHysics/bin/linux/DualSPHysics5.0CPU_linux64: CMakeFiles/DualSPHysics5.0CPU_linux64.dir/JCaseCtes.cpp.o
/home/prashant/Documents/Git/ForkDSPH/DualSPHysics/bin/linux/DualSPHysics5.0CPU_linux64: CMakeFiles/DualSPHysics5.0CPU_linux64.dir/JCaseEParms.cpp.o
/home/prashant/Documents/Git/ForkDSPH/DualSPHysics/bin/linux/DualSPHysics5.0CPU_linux64: CMakeFiles/DualSPHysics5.0CPU_linux64.dir/JCaseParts.cpp.o
/home/prashant/Documents/Git/ForkDSPH/DualSPHysics/bin/linux/DualSPHysics5.0CPU_linux64: CMakeFiles/DualSPHysics5.0CPU_linux64.dir/JCaseProperties.cpp.o
/home/prashant/Documents/Git/ForkDSPH/DualSPHysics/bin/linux/DualSPHysics5.0CPU_linux64: CMakeFiles/DualSPHysics5.0CPU_linux64.dir/JCaseUserVars.cpp.o
/home/prashant/Documents/Git/ForkDSPH/DualSPHysics/bin/linux/DualSPHysics5.0CPU_linux64: CMakeFiles/DualSPHysics5.0CPU_linux64.dir/JCaseVtkOut.cpp.o
/home/prashant/Documents/Git/ForkDSPH/DualSPHysics/bin/linux/DualSPHysics5.0CPU_linux64: CMakeFiles/DualSPHysics5.0CPU_linux64.dir/JArraysCpu.cpp.o
/home/prashant/Documents/Git/ForkDSPH/DualSPHysics/bin/linux/DualSPHysics5.0CPU_linux64: CMakeFiles/DualSPHysics5.0CPU_linux64.dir/JCellDivCpu.cpp.o
/home/prashant/Documents/Git/ForkDSPH/DualSPHysics/bin/linux/DualSPHysics5.0CPU_linux64: CMakeFiles/DualSPHysics5.0CPU_linux64.dir/JSphCfgRun.cpp.o
/home/prashant/Documents/Git/ForkDSPH/DualSPHysics/bin/linux/DualSPHysics5.0CPU_linux64: CMakeFiles/DualSPHysics5.0CPU_linux64.dir/JDsDamping.cpp.o
/home/prashant/Documents/Git/ForkDSPH/DualSPHysics/bin/linux/DualSPHysics5.0CPU_linux64: CMakeFiles/DualSPHysics5.0CPU_linux64.dir/JDsGaugeItem.cpp.o
/home/prashant/Documents/Git/ForkDSPH/DualSPHysics/bin/linux/DualSPHysics5.0CPU_linux64: CMakeFiles/DualSPHysics5.0CPU_linux64.dir/JDsGaugeSystem.cpp.o
/home/prashant/Documents/Git/ForkDSPH/DualSPHysics/bin/linux/DualSPHysics5.0CPU_linux64: CMakeFiles/DualSPHysics5.0CPU_linux64.dir/JDsPartsOut.cpp.o
/home/prashant/Documents/Git/ForkDSPH/DualSPHysics/bin/linux/DualSPHysics5.0CPU_linux64: CMakeFiles/DualSPHysics5.0CPU_linux64.dir/JDsSaveDt.cpp.o
/home/prashant/Documents/Git/ForkDSPH/DualSPHysics/bin/linux/DualSPHysics5.0CPU_linux64: CMakeFiles/DualSPHysics5.0CPU_linux64.dir/JSphShifting.cpp.o
/home/prashant/Documents/Git/ForkDSPH/DualSPHysics/bin/linux/DualSPHysics5.0CPU_linux64: CMakeFiles/DualSPHysics5.0CPU_linux64.dir/JSph.cpp.o
/home/prashant/Documents/Git/ForkDSPH/DualSPHysics/bin/linux/DualSPHysics5.0CPU_linux64: CMakeFiles/DualSPHysics5.0CPU_linux64.dir/JDsAccInput.cpp.o
/home/prashant/Documents/Git/ForkDSPH/DualSPHysics/bin/linux/DualSPHysics5.0CPU_linux64: CMakeFiles/DualSPHysics5.0CPU_linux64.dir/JSphCpu.cpp.o
/home/prashant/Documents/Git/ForkDSPH/DualSPHysics/bin/linux/DualSPHysics5.0CPU_linux64: CMakeFiles/DualSPHysics5.0CPU_linux64.dir/JDsInitialize.cpp.o
/home/prashant/Documents/Git/ForkDSPH/DualSPHysics/bin/linux/DualSPHysics5.0CPU_linux64: CMakeFiles/DualSPHysics5.0CPU_linux64.dir/JSphMk.cpp.o
/home/prashant/Documents/Git/ForkDSPH/DualSPHysics/bin/linux/DualSPHysics5.0CPU_linux64: CMakeFiles/DualSPHysics5.0CPU_linux64.dir/JDsPartsInit.cpp.o
/home/prashant/Documents/Git/ForkDSPH/DualSPHysics/bin/linux/DualSPHysics5.0CPU_linux64: CMakeFiles/DualSPHysics5.0CPU_linux64.dir/JDsFixedDt.cpp.o
/home/prashant/Documents/Git/ForkDSPH/DualSPHysics/bin/linux/DualSPHysics5.0CPU_linux64: CMakeFiles/DualSPHysics5.0CPU_linux64.dir/JDsViscoInput.cpp.o
/home/prashant/Documents/Git/ForkDSPH/DualSPHysics/bin/linux/DualSPHysics5.0CPU_linux64: CMakeFiles/DualSPHysics5.0CPU_linux64.dir/JDsOutputTime.cpp.o
/home/prashant/Documents/Git/ForkDSPH/DualSPHysics/bin/linux/DualSPHysics5.0CPU_linux64: CMakeFiles/DualSPHysics5.0CPU_linux64.dir/JWaveAwasZsurf.cpp.o
/home/prashant/Documents/Git/ForkDSPH/DualSPHysics/bin/linux/DualSPHysics5.0CPU_linux64: CMakeFiles/DualSPHysics5.0CPU_linux64.dir/JWaveSpectrumGpu.cpp.o
/home/prashant/Documents/Git/ForkDSPH/DualSPHysics/bin/linux/DualSPHysics5.0CPU_linux64: CMakeFiles/DualSPHysics5.0CPU_linux64.dir/main.cpp.o
/home/prashant/Documents/Git/ForkDSPH/DualSPHysics/bin/linux/DualSPHysics5.0CPU_linux64: CMakeFiles/DualSPHysics5.0CPU_linux64.dir/JCellDivCpuSingle.cpp.o
/home/prashant/Documents/Git/ForkDSPH/DualSPHysics/bin/linux/DualSPHysics5.0CPU_linux64: CMakeFiles/DualSPHysics5.0CPU_linux64.dir/JPartsLoad4.cpp.o
/home/prashant/Documents/Git/ForkDSPH/DualSPHysics/bin/linux/DualSPHysics5.0CPU_linux64: CMakeFiles/DualSPHysics5.0CPU_linux64.dir/JSphCpuSingle.cpp.o
/home/prashant/Documents/Git/ForkDSPH/DualSPHysics/bin/linux/DualSPHysics5.0CPU_linux64: CMakeFiles/DualSPHysics5.0CPU_linux64.dir/JMLPistonsGpu.cpp.o
/home/prashant/Documents/Git/ForkDSPH/DualSPHysics/bin/linux/DualSPHysics5.0CPU_linux64: CMakeFiles/DualSPHysics5.0CPU_linux64.dir/JRelaxZonesGpu.cpp.o
/home/prashant/Documents/Git/ForkDSPH/DualSPHysics/bin/linux/DualSPHysics5.0CPU_linux64: CMakeFiles/DualSPHysics5.0CPU_linux64.dir/JChronoObjects.cpp.o
/home/prashant/Documents/Git/ForkDSPH/DualSPHysics/bin/linux/DualSPHysics5.0CPU_linux64: CMakeFiles/DualSPHysics5.0CPU_linux64.dir/JDsMooredFloatings.cpp.o
/home/prashant/Documents/Git/ForkDSPH/DualSPHysics/bin/linux/DualSPHysics5.0CPU_linux64: CMakeFiles/DualSPHysics5.0CPU_linux64.dir/JDsFtForcePoints.cpp.o
/home/prashant/Documents/Git/ForkDSPH/DualSPHysics/bin/linux/DualSPHysics5.0CPU_linux64: CMakeFiles/DualSPHysics5.0CPU_linux64.dir/JSphCpu_InOut.cpp.o
/home/prashant/Documents/Git/ForkDSPH/DualSPHysics/bin/linux/DualSPHysics5.0CPU_linux64: CMakeFiles/DualSPHysics5.0CPU_linux64.dir/JSphCpuSingle_InOut.cpp.o
/home/prashant/Documents/Git/ForkDSPH/DualSPHysics/bin/linux/DualSPHysics5.0CPU_linux64: CMakeFiles/DualSPHysics5.0CPU_linux64.dir/JSphBoundCorr.cpp.o
/home/prashant/Documents/Git/ForkDSPH/DualSPHysics/bin/linux/DualSPHysics5.0CPU_linux64: CMakeFiles/DualSPHysics5.0CPU_linux64.dir/JSphInOut.cpp.o
/home/prashant/Documents/Git/ForkDSPH/DualSPHysics/bin/linux/DualSPHysics5.0CPU_linux64: CMakeFiles/DualSPHysics5.0CPU_linux64.dir/JSphInOutZone.cpp.o
/home/prashant/Documents/Git/ForkDSPH/DualSPHysics/bin/linux/DualSPHysics5.0CPU_linux64: CMakeFiles/DualSPHysics5.0CPU_linux64.dir/JSphInOutGridData.cpp.o
/home/prashant/Documents/Git/ForkDSPH/DualSPHysics/bin/linux/DualSPHysics5.0CPU_linux64: CMakeFiles/DualSPHysics5.0CPU_linux64.dir/JSphInOutPoints.cpp.o
/home/prashant/Documents/Git/ForkDSPH/DualSPHysics/bin/linux/DualSPHysics5.0CPU_linux64: CMakeFiles/DualSPHysics5.0CPU_linux64.dir/JSimpleNeigs.cpp.o
/home/prashant/Documents/Git/ForkDSPH/DualSPHysics/bin/linux/DualSPHysics5.0CPU_linux64: CMakeFiles/DualSPHysics5.0CPU_linux64.dir/JPartNormalData.cpp.o
/home/prashant/Documents/Git/ForkDSPH/DualSPHysics/bin/linux/DualSPHysics5.0CPU_linux64: CMakeFiles/DualSPHysics5.0CPU_linux64.dir/JNormalsMarrone.cpp.o
/home/prashant/Documents/Git/ForkDSPH/DualSPHysics/bin/linux/DualSPHysics5.0CPU_linux64: CMakeFiles/DualSPHysics5.0CPU_linux64.dir/build.make
/home/prashant/Documents/Git/ForkDSPH/DualSPHysics/bin/linux/DualSPHysics5.0CPU_linux64: CMakeFiles/DualSPHysics5.0CPU_linux64.dir/link.txt
	@$(CMAKE_COMMAND) -E cmake_echo_color --switch=$(COLOR) --green --bold --progress-dir=/home/prashant/Documents/Git/ForkDSPH/DualSPHysics/src/build-source-Imported_Kit-Debug/CMakeFiles --progress-num=$(CMAKE_PROGRESS_82) "Linking CXX executable /home/prashant/Documents/Git/ForkDSPH/DualSPHysics/bin/linux/DualSPHysics5.0CPU_linux64"
	$(CMAKE_COMMAND) -E cmake_link_script CMakeFiles/DualSPHysics5.0CPU_linux64.dir/link.txt --verbose=$(VERBOSE)

# Rule to build all files generated by this target.
CMakeFiles/DualSPHysics5.0CPU_linux64.dir/build: /home/prashant/Documents/Git/ForkDSPH/DualSPHysics/bin/linux/DualSPHysics5.0CPU_linux64

.PHONY : CMakeFiles/DualSPHysics5.0CPU_linux64.dir/build

CMakeFiles/DualSPHysics5.0CPU_linux64.dir/clean:
	$(CMAKE_COMMAND) -P CMakeFiles/DualSPHysics5.0CPU_linux64.dir/cmake_clean.cmake
.PHONY : CMakeFiles/DualSPHysics5.0CPU_linux64.dir/clean

CMakeFiles/DualSPHysics5.0CPU_linux64.dir/depend:
	cd /home/prashant/Documents/Git/ForkDSPH/DualSPHysics/src/build-source-Imported_Kit-Debug && $(CMAKE_COMMAND) -E cmake_depends "Unix Makefiles" /home/prashant/Documents/Git/ForkDSPH/DualSPHysics/src/source /home/prashant/Documents/Git/ForkDSPH/DualSPHysics/src/source /home/prashant/Documents/Git/ForkDSPH/DualSPHysics/src/build-source-Imported_Kit-Debug /home/prashant/Documents/Git/ForkDSPH/DualSPHysics/src/build-source-Imported_Kit-Debug /home/prashant/Documents/Git/ForkDSPH/DualSPHysics/src/build-source-Imported_Kit-Debug/CMakeFiles/DualSPHysics5.0CPU_linux64.dir/DependInfo.cmake --color=$(COLOR)
.PHONY : CMakeFiles/DualSPHysics5.0CPU_linux64.dir/depend

