#IncludeRegexLine: ^[ 	]*[#%][ 	]*(include|import)[ 	]*[<"]([^">]+)([">])

#IncludeRegexScan: ^.*$

#IncludeRegexComplain: ^$

#IncludeRegexTransform: 

/home/prashant/Documents/Git/ForkDSPH/DualSPHysics/src/source/DualSphDef.h
TypesDef.h
/home/prashant/Documents/Git/ForkDSPH/DualSPHysics/src/source/TypesDef.h
JParticlesDef.h
/home/prashant/Documents/Git/ForkDSPH/DualSPHysics/src/source/JParticlesDef.h
JPeriodicDef.h
/home/prashant/Documents/Git/ForkDSPH/DualSPHysics/src/source/JPeriodicDef.h
FunSphKernelDef.h
/home/prashant/Documents/Git/ForkDSPH/DualSPHysics/src/source/FunSphKernelDef.h
OmpDefs.h
/home/prashant/Documents/Git/ForkDSPH/DualSPHysics/src/source/OmpDefs.h
algorithm
-
JNumexLibDef.h
/home/prashant/Documents/Git/ForkDSPH/DualSPHysics/src/source/JNumexLibDef.h
JVtkLibDef.h
/home/prashant/Documents/Git/ForkDSPH/DualSPHysics/src/source/JVtkLibDef.h

/home/prashant/Documents/Git/ForkDSPH/DualSPHysics/src/source/FunSphEos.h
TypesDef.h
/home/prashant/Documents/Git/ForkDSPH/DualSPHysics/src/source/TypesDef.h
DualSphDef.h
/home/prashant/Documents/Git/ForkDSPH/DualSPHysics/src/source/DualSphDef.h
cmath
-

/home/prashant/Documents/Git/ForkDSPH/DualSPHysics/src/source/FunSphKernel.h
DualSphDef.h
/home/prashant/Documents/Git/ForkDSPH/DualSPHysics/src/source/DualSphDef.h
FunSphKernelDef.h
/home/prashant/Documents/Git/ForkDSPH/DualSPHysics/src/source/FunSphKernelDef.h
cmath
-

/home/prashant/Documents/Git/ForkDSPH/DualSPHysics/src/source/FunSphKernelDef.h

/home/prashant/Documents/Git/ForkDSPH/DualSPHysics/src/source/FunSphKernelsCfg.cpp
FunSphKernelsCfg.h
/home/prashant/Documents/Git/ForkDSPH/DualSPHysics/src/source/FunSphKernelsCfg.h
FunSphKernel.h
/home/prashant/Documents/Git/ForkDSPH/DualSPHysics/src/source/FunSphKernel.h
Functions.h
/home/prashant/Documents/Git/ForkDSPH/DualSPHysics/src/source/Functions.h

/home/prashant/Documents/Git/ForkDSPH/DualSPHysics/src/source/FunSphKernelsCfg.h
FunSphKernelDef.h
/home/prashant/Documents/Git/ForkDSPH/DualSPHysics/src/source/FunSphKernelDef.h
DualSphDef.h
/home/prashant/Documents/Git/ForkDSPH/DualSPHysics/src/source/DualSphDef.h
vector
-

/home/prashant/Documents/Git/ForkDSPH/DualSPHysics/src/source/Functions.h
ctime
-
string
-
vector
-
sys/stat.h
-
TypesDef.h
/home/prashant/Documents/Git/ForkDSPH/DualSPHysics/src/source/TypesDef.h

/home/prashant/Documents/Git/ForkDSPH/DualSPHysics/src/source/FunctionsCuda.h
string
-
vector
-
cuda_runtime_api.h
-
TypesDef.h
/home/prashant/Documents/Git/ForkDSPH/DualSPHysics/src/source/TypesDef.h

/home/prashant/Documents/Git/ForkDSPH/DualSPHysics/src/source/FunctionsGeo3d.h
TypesDef.h
/home/prashant/Documents/Git/ForkDSPH/DualSPHysics/src/source/TypesDef.h
cstdlib
-
cmath
-
cfloat
-
vector
-

/home/prashant/Documents/Git/ForkDSPH/DualSPHysics/src/source/FunctionsMath.h
TypesDef.h
/home/prashant/Documents/Git/ForkDSPH/DualSPHysics/src/source/TypesDef.h
cstdlib
-
cmath
-
cfloat
-

/home/prashant/Documents/Git/ForkDSPH/DualSPHysics/src/source/JAppInfo.h
JAppInfoDef.h
/home/prashant/Documents/Git/ForkDSPH/DualSPHysics/src/source/JAppInfoDef.h
JObject.h
/home/prashant/Documents/Git/ForkDSPH/DualSPHysics/src/source/JObject.h
string
-

/home/prashant/Documents/Git/ForkDSPH/DualSPHysics/src/source/JAppInfoDef.h

/home/prashant/Documents/Git/ForkDSPH/DualSPHysics/src/source/JArraysCpu.h
JObject.h
/home/prashant/Documents/Git/ForkDSPH/DualSPHysics/src/source/JObject.h
DualSphDef.h
/home/prashant/Documents/Git/ForkDSPH/DualSPHysics/src/source/DualSphDef.h

/home/prashant/Documents/Git/ForkDSPH/DualSPHysics/src/source/JBinaryData.h
JObject.h
/home/prashant/Documents/Git/ForkDSPH/DualSPHysics/src/source/JObject.h
TypesDef.h
/home/prashant/Documents/Git/ForkDSPH/DualSPHysics/src/source/TypesDef.h
string
-
vector
-
fstream
-

/home/prashant/Documents/Git/ForkDSPH/DualSPHysics/src/source/JCaseCtes.h
string
-
vector
-
JObject.h
/home/prashant/Documents/Git/ForkDSPH/DualSPHysics/src/source/JObject.h
TypesDef.h
/home/prashant/Documents/Git/ForkDSPH/DualSPHysics/src/source/TypesDef.h

/home/prashant/Documents/Git/ForkDSPH/DualSPHysics/src/source/JCaseEParms.h
string
-
vector
-
JObject.h
/home/prashant/Documents/Git/ForkDSPH/DualSPHysics/src/source/JObject.h
TypesDef.h
/home/prashant/Documents/Git/ForkDSPH/DualSPHysics/src/source/TypesDef.h

/home/prashant/Documents/Git/ForkDSPH/DualSPHysics/src/source/JCaseParts.h
JObject.h
/home/prashant/Documents/Git/ForkDSPH/DualSPHysics/src/source/JObject.h
TypesDef.h
/home/prashant/Documents/Git/ForkDSPH/DualSPHysics/src/source/TypesDef.h
JCasePartsDef.h
/home/prashant/Documents/Git/ForkDSPH/DualSPHysics/src/source/JCasePartsDef.h
JParticlesDef.h
/home/prashant/Documents/Git/ForkDSPH/DualSPHysics/src/source/JParticlesDef.h
string
-
vector
-
cstdlib
-
cmath
-

/home/prashant/Documents/Git/ForkDSPH/DualSPHysics/src/source/JCasePartsDef.h

/home/prashant/Documents/Git/ForkDSPH/DualSPHysics/src/source/JCaseUserVars.h
JObject.h
/home/prashant/Documents/Git/ForkDSPH/DualSPHysics/src/source/JObject.h
TypesDef.h
/home/prashant/Documents/Git/ForkDSPH/DualSPHysics/src/source/TypesDef.h
JNumexLibDef.h
/home/prashant/Documents/Git/ForkDSPH/DualSPHysics/src/source/JNumexLibDef.h
vector
-

/home/prashant/Documents/Git/ForkDSPH/DualSPHysics/src/source/JCellDivCpu.cpp
JCellDivCpu.h
/home/prashant/Documents/Git/ForkDSPH/DualSPHysics/src/source/JCellDivCpu.h
Functions.h
/home/prashant/Documents/Git/ForkDSPH/DualSPHysics/src/source/Functions.h
cfloat
-
climits
-

/home/prashant/Documents/Git/ForkDSPH/DualSPHysics/src/source/JCellDivCpu.h
DualSphDef.h
/home/prashant/Documents/Git/ForkDSPH/DualSPHysics/src/source/DualSphDef.h
JObject.h
/home/prashant/Documents/Git/ForkDSPH/DualSPHysics/src/source/JObject.h
JSphTimersCpu.h
/home/prashant/Documents/Git/ForkDSPH/DualSPHysics/src/source/JSphTimersCpu.h
JCellDivDataCpu.h
/home/prashant/Documents/Git/ForkDSPH/DualSPHysics/src/source/JCellDivDataCpu.h
JLog2.h
/home/prashant/Documents/Git/ForkDSPH/DualSPHysics/src/source/JLog2.h
cmath
-
cstring
-
sstream
-
iostream
-
fstream
-

/home/prashant/Documents/Git/ForkDSPH/DualSPHysics/src/source/JCellDivCpuSingle.cpp
JCellDivCpuSingle.h
/home/prashant/Documents/Git/ForkDSPH/DualSPHysics/src/source/JCellDivCpuSingle.h
Functions.h
/home/prashant/Documents/Git/ForkDSPH/DualSPHysics/src/source/Functions.h
climits
-

/home/prashant/Documents/Git/ForkDSPH/DualSPHysics/src/source/JCellDivCpuSingle.h
JCellDivCpu.h
/home/prashant/Documents/Git/ForkDSPH/DualSPHysics/src/source/JCellDivCpu.h

/home/prashant/Documents/Git/ForkDSPH/DualSPHysics/src/source/JCellDivDataCpu.h
DualSphDef.h
/home/prashant/Documents/Git/ForkDSPH/DualSPHysics/src/source/DualSphDef.h

/home/prashant/Documents/Git/ForkDSPH/DualSPHysics/src/source/JCellDivDataGpu.h
DualSphDef.h
/home/prashant/Documents/Git/ForkDSPH/DualSPHysics/src/source/DualSphDef.h
cuda_runtime_api.h
-

/home/prashant/Documents/Git/ForkDSPH/DualSPHysics/src/source/JCellSearch_inline.h
JCellDivDataCpu.h
/home/prashant/Documents/Git/ForkDSPH/DualSPHysics/src/source/JCellDivDataCpu.h

/home/prashant/Documents/Git/ForkDSPH/DualSPHysics/src/source/JCfgRunBase.h
TypesDef.h
/home/prashant/Documents/Git/ForkDSPH/DualSPHysics/src/source/TypesDef.h
Functions.h
/home/prashant/Documents/Git/ForkDSPH/DualSPHysics/src/source/Functions.h
JObject.h
/home/prashant/Documents/Git/ForkDSPH/DualSPHysics/src/source/JObject.h
string
-
sstream
-
iostream
-
fstream
-
cstdlib
-

/home/prashant/Documents/Git/ForkDSPH/DualSPHysics/src/source/JChronoObjects.h
JObject.h
/home/prashant/Documents/Git/ForkDSPH/DualSPHysics/src/source/JObject.h
DualSphDef.h
/home/prashant/Documents/Git/ForkDSPH/DualSPHysics/src/source/DualSphDef.h
string
-
sstream
-
iostream
-
fstream
-
cstdlib
-
vector
-
JChronoObjectsUndef.h
/home/prashant/Documents/Git/ForkDSPH/DualSPHysics/src/source/JChronoObjectsUndef.h

/home/prashant/Documents/Git/ForkDSPH/DualSPHysics/src/source/JChronoObjectsUndef.h

/home/prashant/Documents/Git/ForkDSPH/DualSPHysics/src/source/JDataArrays.h
JObject.h
/home/prashant/Documents/Git/ForkDSPH/DualSPHysics/src/source/JObject.h
TypesDef.h
/home/prashant/Documents/Git/ForkDSPH/DualSPHysics/src/source/TypesDef.h
string
-
vector
-
climits
-

/home/prashant/Documents/Git/ForkDSPH/DualSPHysics/src/source/JDebugSphGpu.h
TypesDef.h
/home/prashant/Documents/Git/ForkDSPH/DualSPHysics/src/source/TypesDef.h
DualSphDef.h
/home/prashant/Documents/Git/ForkDSPH/DualSPHysics/src/source/DualSphDef.h
string
-
cstring
-
cuda_runtime_api.h
-

/home/prashant/Documents/Git/ForkDSPH/DualSPHysics/src/source/JDsAccInput.h
JObject.h
/home/prashant/Documents/Git/ForkDSPH/DualSPHysics/src/source/JObject.h
DualSphDef.h
/home/prashant/Documents/Git/ForkDSPH/DualSPHysics/src/source/DualSphDef.h
cuda_runtime_api.h
-
string
-
vector
-

/home/prashant/Documents/Git/ForkDSPH/DualSPHysics/src/source/JDsDamping.h
string
-
vector
-
JObject.h
/home/prashant/Documents/Git/ForkDSPH/DualSPHysics/src/source/JObject.h
DualSphDef.h
/home/prashant/Documents/Git/ForkDSPH/DualSPHysics/src/source/DualSphDef.h

/home/prashant/Documents/Git/ForkDSPH/DualSPHysics/src/source/JDsFixedDt.h
JObject.h
/home/prashant/Documents/Git/ForkDSPH/DualSPHysics/src/source/JObject.h
DualSphDef.h
/home/prashant/Documents/Git/ForkDSPH/DualSPHysics/src/source/DualSphDef.h
JTimer.h
/home/prashant/Documents/Git/ForkDSPH/DualSPHysics/src/source/JTimer.h
string
-
sstream
-
iostream
-
fstream
-
cstdlib
-

/home/prashant/Documents/Git/ForkDSPH/DualSPHysics/src/source/JDsFtForcePoints.h
JObject.h
/home/prashant/Documents/Git/ForkDSPH/DualSPHysics/src/source/JObject.h
DualSphDef.h
/home/prashant/Documents/Git/ForkDSPH/DualSPHysics/src/source/DualSphDef.h
string
-
vector
-
cmath
-

/home/prashant/Documents/Git/ForkDSPH/DualSPHysics/src/source/JDsGaugeItem.cpp
JDsGaugeItem.h
/home/prashant/Documents/Git/ForkDSPH/DualSPHysics/src/source/JDsGaugeItem.h
JCellSearch_inline.h
/home/prashant/Documents/Git/ForkDSPH/DualSPHysics/src/source/JCellSearch_inline.h
FunSphKernel.h
/home/prashant/Documents/Git/ForkDSPH/DualSPHysics/src/source/FunSphKernel.h
FunSphEos.h
/home/prashant/Documents/Git/ForkDSPH/DualSPHysics/src/source/FunSphEos.h
JException.h
/home/prashant/Documents/Git/ForkDSPH/DualSPHysics/src/source/JException.h
JLog2.h
/home/prashant/Documents/Git/ForkDSPH/DualSPHysics/src/source/JLog2.h
JSaveCsv2.h
/home/prashant/Documents/Git/ForkDSPH/DualSPHysics/src/source/JSaveCsv2.h
JAppInfo.h
/home/prashant/Documents/Git/ForkDSPH/DualSPHysics/src/source/JAppInfo.h
Functions.h
/home/prashant/Documents/Git/ForkDSPH/DualSPHysics/src/source/Functions.h
FunctionsGeo3d.h
/home/prashant/Documents/Git/ForkDSPH/DualSPHysics/src/source/FunctionsGeo3d.h
JDataArrays.h
/home/prashant/Documents/Git/ForkDSPH/DualSPHysics/src/source/JDataArrays.h
JVtkLib.h
/home/prashant/Documents/Git/ForkDSPH/DualSPHysics/src/source/JVtkLib.h
FunctionsCuda.h
/home/prashant/Documents/Git/ForkDSPH/DualSPHysics/src/source/FunctionsCuda.h
JDsGauge_ker.h
/home/prashant/Documents/Git/ForkDSPH/DualSPHysics/src/source/JDsGauge_ker.h
JReduSum_ker.h
/home/prashant/Documents/Git/ForkDSPH/DualSPHysics/src/source/JReduSum_ker.h
cmath
-
cfloat
-
climits
-
algorithm
-

/home/prashant/Documents/Git/ForkDSPH/DualSPHysics/src/source/JDsGaugeItem.h
string
-
vector
-
JObject.h
/home/prashant/Documents/Git/ForkDSPH/DualSPHysics/src/source/JObject.h
DualSphDef.h
/home/prashant/Documents/Git/ForkDSPH/DualSPHysics/src/source/DualSphDef.h
JSaveCsv2.h
/home/prashant/Documents/Git/ForkDSPH/DualSPHysics/src/source/JSaveCsv2.h
JCellDivDataCpu.h
/home/prashant/Documents/Git/ForkDSPH/DualSPHysics/src/source/JCellDivDataCpu.h
JCellDivDataGpu.h
/home/prashant/Documents/Git/ForkDSPH/DualSPHysics/src/source/JCellDivDataGpu.h
cuda_runtime_api.h
-

/home/prashant/Documents/Git/ForkDSPH/DualSPHysics/src/source/JDsGaugeSystem.cpp
JDsGaugeSystem.h
/home/prashant/Documents/Git/ForkDSPH/DualSPHysics/src/source/JDsGaugeSystem.h
FunSphKernel.h
/home/prashant/Documents/Git/ForkDSPH/DualSPHysics/src/source/FunSphKernel.h
JLog2.h
/home/prashant/Documents/Git/ForkDSPH/DualSPHysics/src/source/JLog2.h
JXml.h
/home/prashant/Documents/Git/ForkDSPH/DualSPHysics/src/source/JXml.h
JAppInfo.h
/home/prashant/Documents/Git/ForkDSPH/DualSPHysics/src/source/JAppInfo.h
Functions.h
/home/prashant/Documents/Git/ForkDSPH/DualSPHysics/src/source/Functions.h
FunctionsGeo3d.h
/home/prashant/Documents/Git/ForkDSPH/DualSPHysics/src/source/FunctionsGeo3d.h
JSphMk.h
/home/prashant/Documents/Git/ForkDSPH/DualSPHysics/src/source/JSphMk.h
JDataArrays.h
/home/prashant/Documents/Git/ForkDSPH/DualSPHysics/src/source/JDataArrays.h
JVtkLib.h
/home/prashant/Documents/Git/ForkDSPH/DualSPHysics/src/source/JVtkLib.h
cfloat
-
climits
-
algorithm
-
FunctionsCuda.h
/home/prashant/Documents/Git/ForkDSPH/DualSPHysics/src/source/FunctionsCuda.h

/home/prashant/Documents/Git/ForkDSPH/DualSPHysics/src/source/JDsGaugeSystem.h
string
-
vector
-
JObject.h
/home/prashant/Documents/Git/ForkDSPH/DualSPHysics/src/source/JObject.h
DualSphDef.h
/home/prashant/Documents/Git/ForkDSPH/DualSPHysics/src/source/DualSphDef.h
JDsGaugeItem.h
/home/prashant/Documents/Git/ForkDSPH/DualSPHysics/src/source/JDsGaugeItem.h

/home/prashant/Documents/Git/ForkDSPH/DualSPHysics/src/source/JDsGauge_ker.h
DualSphDef.h
/home/prashant/Documents/Git/ForkDSPH/DualSPHysics/src/source/DualSphDef.h
JCellDivDataGpu.h
/home/prashant/Documents/Git/ForkDSPH/DualSPHysics/src/source/JCellDivDataGpu.h
cuda_runtime_api.h
-

/home/prashant/Documents/Git/ForkDSPH/DualSPHysics/src/source/JDsInitialize.h
string
-
vector
-
cstdlib
-
cmath
-
JObject.h
/home/prashant/Documents/Git/ForkDSPH/DualSPHysics/src/source/JObject.h
TypesDef.h
/home/prashant/Documents/Git/ForkDSPH/DualSPHysics/src/source/TypesDef.h

/home/prashant/Documents/Git/ForkDSPH/DualSPHysics/src/source/JDsMooredFloatings.h
JObject.h
/home/prashant/Documents/Git/ForkDSPH/DualSPHysics/src/source/JObject.h
DualSphDef.h
/home/prashant/Documents/Git/ForkDSPH/DualSPHysics/src/source/DualSphDef.h
string
-
vector
-
cmath
-

/home/prashant/Documents/Git/ForkDSPH/DualSPHysics/src/source/JDsMotion.h
JObject.h
/home/prashant/Documents/Git/ForkDSPH/DualSPHysics/src/source/JObject.h
DualSphDef.h
/home/prashant/Documents/Git/ForkDSPH/DualSPHysics/src/source/DualSphDef.h
string
-

/home/prashant/Documents/Git/ForkDSPH/DualSPHysics/src/source/JDsOutputTime.h
JObject.h
/home/prashant/Documents/Git/ForkDSPH/DualSPHysics/src/source/JObject.h
string
-
vector
-

/home/prashant/Documents/Git/ForkDSPH/DualSPHysics/src/source/JDsPartsInit.h
string
-
vector
-
JObject.h
/home/prashant/Documents/Git/ForkDSPH/DualSPHysics/src/source/JObject.h
DualSphDef.h
/home/prashant/Documents/Git/ForkDSPH/DualSPHysics/src/source/DualSphDef.h

/home/prashant/Documents/Git/ForkDSPH/DualSPHysics/src/source/JDsPartsOut.h
DualSphDef.h
/home/prashant/Documents/Git/ForkDSPH/DualSPHysics/src/source/DualSphDef.h
JObject.h
/home/prashant/Documents/Git/ForkDSPH/DualSPHysics/src/source/JObject.h
cstring
-

/home/prashant/Documents/Git/ForkDSPH/DualSPHysics/src/source/JDsPips.h
JObject.h
/home/prashant/Documents/Git/ForkDSPH/DualSPHysics/src/source/JObject.h
DualSphDef.h
/home/prashant/Documents/Git/ForkDSPH/DualSPHysics/src/source/DualSphDef.h
JCellDivDataCpu.h
/home/prashant/Documents/Git/ForkDSPH/DualSPHysics/src/source/JCellDivDataCpu.h
JCellDivDataGpu.h
/home/prashant/Documents/Git/ForkDSPH/DualSPHysics/src/source/JCellDivDataGpu.h
cuda_runtime_api.h
-
string
-
vector
-

/home/prashant/Documents/Git/ForkDSPH/DualSPHysics/src/source/JDsSaveDt.h
string
-
vector
-
JObject.h
/home/prashant/Documents/Git/ForkDSPH/DualSPHysics/src/source/JObject.h
DualSphDef.h
/home/prashant/Documents/Git/ForkDSPH/DualSPHysics/src/source/DualSphDef.h

/home/prashant/Documents/Git/ForkDSPH/DualSPHysics/src/source/JDsViscoInput.h
JObject.h
/home/prashant/Documents/Git/ForkDSPH/DualSPHysics/src/source/JObject.h
DualSphDef.h
/home/prashant/Documents/Git/ForkDSPH/DualSPHysics/src/source/DualSphDef.h
JTimer.h
/home/prashant/Documents/Git/ForkDSPH/DualSPHysics/src/source/JTimer.h
string
-
sstream
-
iostream
-
fstream
-
cstdlib
-

/home/prashant/Documents/Git/ForkDSPH/DualSPHysics/src/source/JException.h
string
-

/home/prashant/Documents/Git/ForkDSPH/DualSPHysics/src/source/JLinearValue.h
JObject.h
/home/prashant/Documents/Git/ForkDSPH/DualSPHysics/src/source/JObject.h
TypesDef.h
/home/prashant/Documents/Git/ForkDSPH/DualSPHysics/src/source/TypesDef.h
JLinearValueDef.h
/home/prashant/Documents/Git/ForkDSPH/DualSPHysics/src/source/JLinearValueDef.h
string
-
sstream
-
iostream
-
fstream
-
cstdlib
-
string
-

/home/prashant/Documents/Git/ForkDSPH/DualSPHysics/src/source/JLinearValueDef.h

/home/prashant/Documents/Git/ForkDSPH/DualSPHysics/src/source/JLog2.h
JObject.h
/home/prashant/Documents/Git/ForkDSPH/DualSPHysics/src/source/JObject.h
string
-
sstream
-
iostream
-
fstream
-
vector
-

/home/prashant/Documents/Git/ForkDSPH/DualSPHysics/src/source/JMLPistons.h
JObject.h
/home/prashant/Documents/Git/ForkDSPH/DualSPHysics/src/source/JObject.h
DualSphDef.h
/home/prashant/Documents/Git/ForkDSPH/DualSPHysics/src/source/DualSphDef.h
string
-
vector
-

/home/prashant/Documents/Git/ForkDSPH/DualSPHysics/src/source/JMatrix4.h
TypesDef.h
/home/prashant/Documents/Git/ForkDSPH/DualSPHysics/src/source/TypesDef.h
cstdio
-
cmath
-

/home/prashant/Documents/Git/ForkDSPH/DualSPHysics/src/source/JNormalsMarrone.h
JObject.h
/home/prashant/Documents/Git/ForkDSPH/DualSPHysics/src/source/JObject.h
TypesDef.h
/home/prashant/Documents/Git/ForkDSPH/DualSPHysics/src/source/TypesDef.h
string
-
climits
-
vector
-

/home/prashant/Documents/Git/ForkDSPH/DualSPHysics/src/source/JNumexLib.h
TypesDef.h
/home/prashant/Documents/Git/ForkDSPH/DualSPHysics/src/source/TypesDef.h
string
-
vector
-
JNumexLibDef.h
/home/prashant/Documents/Git/ForkDSPH/DualSPHysics/src/source/JNumexLibDef.h
JNumexLibUndef.h
/home/prashant/Documents/Git/ForkDSPH/DualSPHysics/src/source/JNumexLibUndef.h

/home/prashant/Documents/Git/ForkDSPH/DualSPHysics/src/source/JNumexLibDef.h

/home/prashant/Documents/Git/ForkDSPH/DualSPHysics/src/source/JNumexLibUndef.h

/home/prashant/Documents/Git/ForkDSPH/DualSPHysics/src/source/JObject.h
string
-

/home/prashant/Documents/Git/ForkDSPH/DualSPHysics/src/source/JOutputCsv.h
TypesDef.h
/home/prashant/Documents/Git/ForkDSPH/DualSPHysics/src/source/TypesDef.h
JObject.h
/home/prashant/Documents/Git/ForkDSPH/DualSPHysics/src/source/JObject.h
JDataArrays.h
/home/prashant/Documents/Git/ForkDSPH/DualSPHysics/src/source/JDataArrays.h
string
-
cstring
-
string
-
vector
-

/home/prashant/Documents/Git/ForkDSPH/DualSPHysics/src/source/JPartDataBi4.h
JObject.h
/home/prashant/Documents/Git/ForkDSPH/DualSPHysics/src/source/JObject.h
TypesDef.h
/home/prashant/Documents/Git/ForkDSPH/DualSPHysics/src/source/TypesDef.h
JPeriodicDef.h
/home/prashant/Documents/Git/ForkDSPH/DualSPHysics/src/source/JPeriodicDef.h
JBinaryData.h
/home/prashant/Documents/Git/ForkDSPH/DualSPHysics/src/source/JBinaryData.h
string
-
vector
-
fstream
-
cfloat
-

/home/prashant/Documents/Git/ForkDSPH/DualSPHysics/src/source/JPartDataHead.h
string
-
vector
-
JObject.h
/home/prashant/Documents/Git/ForkDSPH/DualSPHysics/src/source/JObject.h
TypesDef.h
/home/prashant/Documents/Git/ForkDSPH/DualSPHysics/src/source/TypesDef.h
JParticlesDef.h
/home/prashant/Documents/Git/ForkDSPH/DualSPHysics/src/source/JParticlesDef.h
JPeriodicDef.h
/home/prashant/Documents/Git/ForkDSPH/DualSPHysics/src/source/JPeriodicDef.h

/home/prashant/Documents/Git/ForkDSPH/DualSPHysics/src/source/JPartFloatBi4.h
JObject.h
/home/prashant/Documents/Git/ForkDSPH/DualSPHysics/src/source/JObject.h
TypesDef.h
/home/prashant/Documents/Git/ForkDSPH/DualSPHysics/src/source/TypesDef.h
JBinaryData.h
/home/prashant/Documents/Git/ForkDSPH/DualSPHysics/src/source/JBinaryData.h
string
-
vector
-
fstream
-

/home/prashant/Documents/Git/ForkDSPH/DualSPHysics/src/source/JPartNormalData.h
string
-
vector
-
JObject.h
/home/prashant/Documents/Git/ForkDSPH/DualSPHysics/src/source/JObject.h
TypesDef.h
/home/prashant/Documents/Git/ForkDSPH/DualSPHysics/src/source/TypesDef.h
JBinaryData.h
/home/prashant/Documents/Git/ForkDSPH/DualSPHysics/src/source/JBinaryData.h

/home/prashant/Documents/Git/ForkDSPH/DualSPHysics/src/source/JPartOutBi4Save.h
JObject.h
/home/prashant/Documents/Git/ForkDSPH/DualSPHysics/src/source/JObject.h
TypesDef.h
/home/prashant/Documents/Git/ForkDSPH/DualSPHysics/src/source/TypesDef.h
JBinaryData.h
/home/prashant/Documents/Git/ForkDSPH/DualSPHysics/src/source/JBinaryData.h
string
-
vector
-
fstream
-

/home/prashant/Documents/Git/ForkDSPH/DualSPHysics/src/source/JParticlesDef.h
string
-

/home/prashant/Documents/Git/ForkDSPH/DualSPHysics/src/source/JPartsLoad4.h
TypesDef.h
/home/prashant/Documents/Git/ForkDSPH/DualSPHysics/src/source/TypesDef.h
JPeriodicDef.h
/home/prashant/Documents/Git/ForkDSPH/DualSPHysics/src/source/JPeriodicDef.h
JObject.h
/home/prashant/Documents/Git/ForkDSPH/DualSPHysics/src/source/JObject.h
cstring
-

/home/prashant/Documents/Git/ForkDSPH/DualSPHysics/src/source/JPeriodicDef.h
TypesDef.h
/home/prashant/Documents/Git/ForkDSPH/DualSPHysics/src/source/TypesDef.h
string
-

/home/prashant/Documents/Git/ForkDSPH/DualSPHysics/src/source/JRangeFilter.h
TypesDef.h
/home/prashant/Documents/Git/ForkDSPH/DualSPHysics/src/source/TypesDef.h
JObject.h
/home/prashant/Documents/Git/ForkDSPH/DualSPHysics/src/source/JObject.h
string
-
vector
-

/home/prashant/Documents/Git/ForkDSPH/DualSPHysics/src/source/JReduSum_ker.h
cuda_runtime_api.h
-

/home/prashant/Documents/Git/ForkDSPH/DualSPHysics/src/source/JRelaxZones.h
JObject.h
/home/prashant/Documents/Git/ForkDSPH/DualSPHysics/src/source/JObject.h
DualSphDef.h
/home/prashant/Documents/Git/ForkDSPH/DualSPHysics/src/source/DualSphDef.h
string
-
vector
-

/home/prashant/Documents/Git/ForkDSPH/DualSPHysics/src/source/JSaveCsv2.h
TypesDef.h
/home/prashant/Documents/Git/ForkDSPH/DualSPHysics/src/source/TypesDef.h
JObject.h
/home/prashant/Documents/Git/ForkDSPH/DualSPHysics/src/source/JObject.h
string
-
fstream
-
iostream
-
sstream
-

/home/prashant/Documents/Git/ForkDSPH/DualSPHysics/src/source/JSimpleNeigs.h
JObject.h
/home/prashant/Documents/Git/ForkDSPH/DualSPHysics/src/source/JObject.h
TypesDef.h
/home/prashant/Documents/Git/ForkDSPH/DualSPHysics/src/source/TypesDef.h
climits
-

/home/prashant/Documents/Git/ForkDSPH/DualSPHysics/src/source/JSph.cpp
JSph.h
/home/prashant/Documents/Git/ForkDSPH/DualSPHysics/src/source/JSph.h
JAppInfo.h
/home/prashant/Documents/Git/ForkDSPH/DualSPHysics/src/source/JAppInfo.h
Functions.h
/home/prashant/Documents/Git/ForkDSPH/DualSPHysics/src/source/Functions.h
FunctionsGeo3d.h
/home/prashant/Documents/Git/ForkDSPH/DualSPHysics/src/source/FunctionsGeo3d.h
FunSphKernelsCfg.h
/home/prashant/Documents/Git/ForkDSPH/DualSPHysics/src/source/FunSphKernelsCfg.h
FunSphKernel.h
/home/prashant/Documents/Git/ForkDSPH/DualSPHysics/src/source/FunSphKernel.h
JPartDataHead.h
/home/prashant/Documents/Git/ForkDSPH/DualSPHysics/src/source/JPartDataHead.h
JSphMk.h
/home/prashant/Documents/Git/ForkDSPH/DualSPHysics/src/source/JSphMk.h
JDsPartsInit.h
/home/prashant/Documents/Git/ForkDSPH/DualSPHysics/src/source/JDsPartsInit.h
JPartsLoad4.h
/home/prashant/Documents/Git/ForkDSPH/DualSPHysics/src/source/JPartsLoad4.h
JDsMotion.h
/home/prashant/Documents/Git/ForkDSPH/DualSPHysics/src/source/JDsMotion.h
JXml.h
/home/prashant/Documents/Git/ForkDSPH/DualSPHysics/src/source/JXml.h
JCaseCtes.h
/home/prashant/Documents/Git/ForkDSPH/DualSPHysics/src/source/JCaseCtes.h
JCaseEParms.h
/home/prashant/Documents/Git/ForkDSPH/DualSPHysics/src/source/JCaseEParms.h
JCaseParts.h
/home/prashant/Documents/Git/ForkDSPH/DualSPHysics/src/source/JCaseParts.h
JDsFixedDt.h
/home/prashant/Documents/Git/ForkDSPH/DualSPHysics/src/source/JDsFixedDt.h
JDsSaveDt.h
/home/prashant/Documents/Git/ForkDSPH/DualSPHysics/src/source/JDsSaveDt.h
JDsOutputTime.h
/home/prashant/Documents/Git/ForkDSPH/DualSPHysics/src/source/JDsOutputTime.h
JDsViscoInput.h
/home/prashant/Documents/Git/ForkDSPH/DualSPHysics/src/source/JDsViscoInput.h
JDsGaugeSystem.h
/home/prashant/Documents/Git/ForkDSPH/DualSPHysics/src/source/JDsGaugeSystem.h
JWaveGen.h
/home/prashant/Documents/Git/ForkDSPH/DualSPHysics/src/source/JWaveGen.h
JMLPistons.h
/home/prashant/Documents/Git/ForkDSPH/DualSPHysics/src/source/JMLPistons.h
JRelaxZones.h
/home/prashant/Documents/Git/ForkDSPH/DualSPHysics/src/source/JRelaxZones.h
JChronoObjects.h
/home/prashant/Documents/Git/ForkDSPH/DualSPHysics/src/source/JChronoObjects.h
JDsMooredFloatings.h
/home/prashant/Documents/Git/ForkDSPH/DualSPHysics/src/source/JDsMooredFloatings.h
JDsFtForcePoints.h
/home/prashant/Documents/Git/ForkDSPH/DualSPHysics/src/source/JDsFtForcePoints.h
JDsAccInput.h
/home/prashant/Documents/Git/ForkDSPH/DualSPHysics/src/source/JDsAccInput.h
JPartDataBi4.h
/home/prashant/Documents/Git/ForkDSPH/DualSPHysics/src/source/JPartDataBi4.h
JPartOutBi4Save.h
/home/prashant/Documents/Git/ForkDSPH/DualSPHysics/src/source/JPartOutBi4Save.h
JPartFloatBi4.h
/home/prashant/Documents/Git/ForkDSPH/DualSPHysics/src/source/JPartFloatBi4.h
JDsPartsOut.h
/home/prashant/Documents/Git/ForkDSPH/DualSPHysics/src/source/JDsPartsOut.h
JSphShifting.h
/home/prashant/Documents/Git/ForkDSPH/DualSPHysics/src/source/JSphShifting.h
JDsDamping.h
/home/prashant/Documents/Git/ForkDSPH/DualSPHysics/src/source/JDsDamping.h
JDsInitialize.h
/home/prashant/Documents/Git/ForkDSPH/DualSPHysics/src/source/JDsInitialize.h
JSphInOut.h
/home/prashant/Documents/Git/ForkDSPH/DualSPHysics/src/source/JSphInOut.h
JSphBoundCorr.h
/home/prashant/Documents/Git/ForkDSPH/DualSPHysics/src/source/JSphBoundCorr.h
JDsPips.h
/home/prashant/Documents/Git/ForkDSPH/DualSPHysics/src/source/JDsPips.h
JLinearValue.h
/home/prashant/Documents/Git/ForkDSPH/DualSPHysics/src/source/JLinearValue.h
JPartNormalData.h
/home/prashant/Documents/Git/ForkDSPH/DualSPHysics/src/source/JPartNormalData.h
JNormalsMarrone.h
/home/prashant/Documents/Git/ForkDSPH/DualSPHysics/src/source/JNormalsMarrone.h
JDataArrays.h
/home/prashant/Documents/Git/ForkDSPH/DualSPHysics/src/source/JDataArrays.h
JOutputCsv.h
/home/prashant/Documents/Git/ForkDSPH/DualSPHysics/src/source/JOutputCsv.h
JVtkLib.h
/home/prashant/Documents/Git/ForkDSPH/DualSPHysics/src/source/JVtkLib.h
JNumexLib.h
/home/prashant/Documents/Git/ForkDSPH/DualSPHysics/src/source/JNumexLib.h
JCaseUserVars.h
/home/prashant/Documents/Git/ForkDSPH/DualSPHysics/src/source/JCaseUserVars.h
algorithm
-

/home/prashant/Documents/Git/ForkDSPH/DualSPHysics/src/source/JSph.h
DualSphDef.h
/home/prashant/Documents/Git/ForkDSPH/DualSPHysics/src/source/DualSphDef.h
JObject.h
/home/prashant/Documents/Git/ForkDSPH/DualSPHysics/src/source/JObject.h
JSphCfgRun.h
/home/prashant/Documents/Git/ForkDSPH/DualSPHysics/src/source/JSphCfgRun.h
JLog2.h
/home/prashant/Documents/Git/ForkDSPH/DualSPHysics/src/source/JLog2.h
JTimer.h
/home/prashant/Documents/Git/ForkDSPH/DualSPHysics/src/source/JTimer.h
float.h
-
string
-
cmath
-
ctime
-
sstream
-
iostream
-
fstream
-

/home/prashant/Documents/Git/ForkDSPH/DualSPHysics/src/source/JSphBoundCorr.cpp
JSphBoundCorr.h
/home/prashant/Documents/Git/ForkDSPH/DualSPHysics/src/source/JSphBoundCorr.h
JSphCpu.h
/home/prashant/Documents/Git/ForkDSPH/DualSPHysics/src/source/JSphCpu.h
JSphMk.h
/home/prashant/Documents/Git/ForkDSPH/DualSPHysics/src/source/JSphMk.h
JDsPartsInit.h
/home/prashant/Documents/Git/ForkDSPH/DualSPHysics/src/source/JDsPartsInit.h
JXml.h
/home/prashant/Documents/Git/ForkDSPH/DualSPHysics/src/source/JXml.h
JLog2.h
/home/prashant/Documents/Git/ForkDSPH/DualSPHysics/src/source/JLog2.h
JAppInfo.h
/home/prashant/Documents/Git/ForkDSPH/DualSPHysics/src/source/JAppInfo.h
Functions.h
/home/prashant/Documents/Git/ForkDSPH/DualSPHysics/src/source/Functions.h
FunctionsGeo3d.h
/home/prashant/Documents/Git/ForkDSPH/DualSPHysics/src/source/FunctionsGeo3d.h
JMatrix4.h
/home/prashant/Documents/Git/ForkDSPH/DualSPHysics/src/source/JMatrix4.h
JLinearValue.h
/home/prashant/Documents/Git/ForkDSPH/DualSPHysics/src/source/JLinearValue.h
JSaveCsv2.h
/home/prashant/Documents/Git/ForkDSPH/DualSPHysics/src/source/JSaveCsv2.h
JRangeFilter.h
/home/prashant/Documents/Git/ForkDSPH/DualSPHysics/src/source/JRangeFilter.h
JVtkLib.h
/home/prashant/Documents/Git/ForkDSPH/DualSPHysics/src/source/JVtkLib.h
cfloat
-
climits
-
algorithm
-

/home/prashant/Documents/Git/ForkDSPH/DualSPHysics/src/source/JSphBoundCorr.h
string
-
vector
-
JObject.h
/home/prashant/Documents/Git/ForkDSPH/DualSPHysics/src/source/JObject.h
DualSphDef.h
/home/prashant/Documents/Git/ForkDSPH/DualSPHysics/src/source/DualSphDef.h

/home/prashant/Documents/Git/ForkDSPH/DualSPHysics/src/source/JSphCfgRun.h
JCfgRunBase.h
/home/prashant/Documents/Git/ForkDSPH/DualSPHysics/src/source/JCfgRunBase.h
DualSphDef.h
/home/prashant/Documents/Git/ForkDSPH/DualSPHysics/src/source/DualSphDef.h

/home/prashant/Documents/Git/ForkDSPH/DualSPHysics/src/source/JSphCpu.cpp
JSphCpu.h
/home/prashant/Documents/Git/ForkDSPH/DualSPHysics/src/source/JSphCpu.h
JCellSearch_inline.h
/home/prashant/Documents/Git/ForkDSPH/DualSPHysics/src/source/JCellSearch_inline.h
JCellDivCpu.h
/home/prashant/Documents/Git/ForkDSPH/DualSPHysics/src/source/JCellDivCpu.h
JPartFloatBi4.h
/home/prashant/Documents/Git/ForkDSPH/DualSPHysics/src/source/JPartFloatBi4.h
FunSphKernel.h
/home/prashant/Documents/Git/ForkDSPH/DualSPHysics/src/source/FunSphKernel.h
FunSphEos.h
/home/prashant/Documents/Git/ForkDSPH/DualSPHysics/src/source/FunSphEos.h
Functions.h
/home/prashant/Documents/Git/ForkDSPH/DualSPHysics/src/source/Functions.h
FunctionsMath.h
/home/prashant/Documents/Git/ForkDSPH/DualSPHysics/src/source/FunctionsMath.h
JDsMotion.h
/home/prashant/Documents/Git/ForkDSPH/DualSPHysics/src/source/JDsMotion.h
JArraysCpu.h
/home/prashant/Documents/Git/ForkDSPH/DualSPHysics/src/source/JArraysCpu.h
JDsFixedDt.h
/home/prashant/Documents/Git/ForkDSPH/DualSPHysics/src/source/JDsFixedDt.h
JWaveGen.h
/home/prashant/Documents/Git/ForkDSPH/DualSPHysics/src/source/JWaveGen.h
JMLPistons.h
/home/prashant/Documents/Git/ForkDSPH/DualSPHysics/src/source/JMLPistons.h
JRelaxZones.h
/home/prashant/Documents/Git/ForkDSPH/DualSPHysics/src/source/JRelaxZones.h
JChronoObjects.h
/home/prashant/Documents/Git/ForkDSPH/DualSPHysics/src/source/JChronoObjects.h
JDsFtForcePoints.h
/home/prashant/Documents/Git/ForkDSPH/DualSPHysics/src/source/JDsFtForcePoints.h
JDsDamping.h
/home/prashant/Documents/Git/ForkDSPH/DualSPHysics/src/source/JDsDamping.h
JXml.h
/home/prashant/Documents/Git/ForkDSPH/DualSPHysics/src/source/JXml.h
JDsSaveDt.h
/home/prashant/Documents/Git/ForkDSPH/DualSPHysics/src/source/JDsSaveDt.h
JDsOutputTime.h
/home/prashant/Documents/Git/ForkDSPH/DualSPHysics/src/source/JDsOutputTime.h
JDsAccInput.h
/home/prashant/Documents/Git/ForkDSPH/DualSPHysics/src/source/JDsAccInput.h
JDsGaugeSystem.h
/home/prashant/Documents/Git/ForkDSPH/DualSPHysics/src/source/JDsGaugeSystem.h
JSphBoundCorr.h
/home/prashant/Documents/Git/ForkDSPH/DualSPHysics/src/source/JSphBoundCorr.h
JSphShifting.h
/home/prashant/Documents/Git/ForkDSPH/DualSPHysics/src/source/JSphShifting.h
climits
-
unistd.h
-

/home/prashant/Documents/Git/ForkDSPH/DualSPHysics/src/source/JSphCpu.h
DualSphDef.h
/home/prashant/Documents/Git/ForkDSPH/DualSPHysics/src/source/DualSphDef.h
JSphTimersCpu.h
/home/prashant/Documents/Git/ForkDSPH/DualSPHysics/src/source/JSphTimersCpu.h
JCellDivDataCpu.h
/home/prashant/Documents/Git/ForkDSPH/DualSPHysics/src/source/JCellDivDataCpu.h
JSph.h
/home/prashant/Documents/Git/ForkDSPH/DualSPHysics/src/source/JSph.h
string
-

/home/prashant/Documents/Git/ForkDSPH/DualSPHysics/src/source/JSphCpuSingle.cpp
JSphCpuSingle.h
/home/prashant/Documents/Git/ForkDSPH/DualSPHysics/src/source/JSphCpuSingle.h
JCellDivCpuSingle.h
/home/prashant/Documents/Git/ForkDSPH/DualSPHysics/src/source/JCellDivCpuSingle.h
JArraysCpu.h
/home/prashant/Documents/Git/ForkDSPH/DualSPHysics/src/source/JArraysCpu.h
JSphMk.h
/home/prashant/Documents/Git/ForkDSPH/DualSPHysics/src/source/JSphMk.h
JPartsLoad4.h
/home/prashant/Documents/Git/ForkDSPH/DualSPHysics/src/source/JPartsLoad4.h
Functions.h
/home/prashant/Documents/Git/ForkDSPH/DualSPHysics/src/source/Functions.h
FunctionsMath.h
/home/prashant/Documents/Git/ForkDSPH/DualSPHysics/src/source/FunctionsMath.h
JXml.h
/home/prashant/Documents/Git/ForkDSPH/DualSPHysics/src/source/JXml.h
JDsMotion.h
/home/prashant/Documents/Git/ForkDSPH/DualSPHysics/src/source/JDsMotion.h
JDsViscoInput.h
/home/prashant/Documents/Git/ForkDSPH/DualSPHysics/src/source/JDsViscoInput.h
JWaveGen.h
/home/prashant/Documents/Git/ForkDSPH/DualSPHysics/src/source/JWaveGen.h
JMLPistons.h
/home/prashant/Documents/Git/ForkDSPH/DualSPHysics/src/source/JMLPistons.h
JRelaxZones.h
/home/prashant/Documents/Git/ForkDSPH/DualSPHysics/src/source/JRelaxZones.h
JChronoObjects.h
/home/prashant/Documents/Git/ForkDSPH/DualSPHysics/src/source/JChronoObjects.h
JDsMooredFloatings.h
/home/prashant/Documents/Git/ForkDSPH/DualSPHysics/src/source/JDsMooredFloatings.h
JDsFtForcePoints.h
/home/prashant/Documents/Git/ForkDSPH/DualSPHysics/src/source/JDsFtForcePoints.h
JDsOutputTime.h
/home/prashant/Documents/Git/ForkDSPH/DualSPHysics/src/source/JDsOutputTime.h
JTimeControl.h
/home/prashant/Documents/Git/ForkDSPH/DualSPHysics/src/source/JTimeControl.h
JDsGaugeSystem.h
/home/prashant/Documents/Git/ForkDSPH/DualSPHysics/src/source/JDsGaugeSystem.h
JSphInOut.h
/home/prashant/Documents/Git/ForkDSPH/DualSPHysics/src/source/JSphInOut.h
JLinearValue.h
/home/prashant/Documents/Git/ForkDSPH/DualSPHysics/src/source/JLinearValue.h
JDataArrays.h
/home/prashant/Documents/Git/ForkDSPH/DualSPHysics/src/source/JDataArrays.h
JSphShifting.h
/home/prashant/Documents/Git/ForkDSPH/DualSPHysics/src/source/JSphShifting.h
JDsPips.h
/home/prashant/Documents/Git/ForkDSPH/DualSPHysics/src/source/JDsPips.h
climits
-

/home/prashant/Documents/Git/ForkDSPH/DualSPHysics/src/source/JSphCpuSingle.h
DualSphDef.h
/home/prashant/Documents/Git/ForkDSPH/DualSPHysics/src/source/DualSphDef.h
JSphCpu.h
/home/prashant/Documents/Git/ForkDSPH/DualSPHysics/src/source/JSphCpu.h
string
-

/home/prashant/Documents/Git/ForkDSPH/DualSPHysics/src/source/JSphCpuSingle_InOut.cpp
JSphCpuSingle.h
/home/prashant/Documents/Git/ForkDSPH/DualSPHysics/src/source/JSphCpuSingle.h
JCellDivCpuSingle.h
/home/prashant/Documents/Git/ForkDSPH/DualSPHysics/src/source/JCellDivCpuSingle.h
JArraysCpu.h
/home/prashant/Documents/Git/ForkDSPH/DualSPHysics/src/source/JArraysCpu.h
JSphInOut.h
/home/prashant/Documents/Git/ForkDSPH/DualSPHysics/src/source/JSphInOut.h
JSphMk.h
/home/prashant/Documents/Git/ForkDSPH/DualSPHysics/src/source/JSphMk.h
JDsPartsInit.h
/home/prashant/Documents/Git/ForkDSPH/DualSPHysics/src/source/JDsPartsInit.h
JSphBoundCorr.h
/home/prashant/Documents/Git/ForkDSPH/DualSPHysics/src/source/JSphBoundCorr.h
JSphInOutPoints.h
/home/prashant/Documents/Git/ForkDSPH/DualSPHysics/src/source/JSphInOutPoints.h
JSimpleNeigs.h
/home/prashant/Documents/Git/ForkDSPH/DualSPHysics/src/source/JSimpleNeigs.h
FunctionsMath.h
/home/prashant/Documents/Git/ForkDSPH/DualSPHysics/src/source/FunctionsMath.h
JAppInfo.h
/home/prashant/Documents/Git/ForkDSPH/DualSPHysics/src/source/JAppInfo.h
JTimeControl.h
/home/prashant/Documents/Git/ForkDSPH/DualSPHysics/src/source/JTimeControl.h
JDataArrays.h
/home/prashant/Documents/Git/ForkDSPH/DualSPHysics/src/source/JDataArrays.h
JVtkLib.h
/home/prashant/Documents/Git/ForkDSPH/DualSPHysics/src/source/JVtkLib.h
climits
-

/home/prashant/Documents/Git/ForkDSPH/DualSPHysics/src/source/JSphCpu_InOut.cpp
JSphCpu.h
/home/prashant/Documents/Git/ForkDSPH/DualSPHysics/src/source/JSphCpu.h
JCellSearch_inline.h
/home/prashant/Documents/Git/ForkDSPH/DualSPHysics/src/source/JCellSearch_inline.h
FunSphKernel.h
/home/prashant/Documents/Git/ForkDSPH/DualSPHysics/src/source/FunSphKernel.h
FunctionsMath.h
/home/prashant/Documents/Git/ForkDSPH/DualSPHysics/src/source/FunctionsMath.h
FunctionsGeo3d.h
/home/prashant/Documents/Git/ForkDSPH/DualSPHysics/src/source/FunctionsGeo3d.h
JSphInOut.h
/home/prashant/Documents/Git/ForkDSPH/DualSPHysics/src/source/JSphInOut.h
JSphInOutZone.h
/home/prashant/Documents/Git/ForkDSPH/DualSPHysics/src/source/JSphInOutZone.h
climits
-

/home/prashant/Documents/Git/ForkDSPH/DualSPHysics/src/source/JSphGpu.h
DualSphDef.h
/home/prashant/Documents/Git/ForkDSPH/DualSPHysics/src/source/DualSphDef.h
JSphTimersGpu.h
/home/prashant/Documents/Git/ForkDSPH/DualSPHysics/src/source/JSphTimersGpu.h
JCellDivDataGpu.h
/home/prashant/Documents/Git/ForkDSPH/DualSPHysics/src/source/JCellDivDataGpu.h
JSph.h
/home/prashant/Documents/Git/ForkDSPH/DualSPHysics/src/source/JSph.h
string
-

/home/prashant/Documents/Git/ForkDSPH/DualSPHysics/src/source/JSphGpuSingle.h
DualSphDef.h
/home/prashant/Documents/Git/ForkDSPH/DualSPHysics/src/source/DualSphDef.h
JSphGpu.h
/home/prashant/Documents/Git/ForkDSPH/DualSPHysics/src/source/JSphGpu.h
string
-

/home/prashant/Documents/Git/ForkDSPH/DualSPHysics/src/source/JSphGpu_InOut_iker.h
DualSphDef.h
/home/prashant/Documents/Git/ForkDSPH/DualSPHysics/src/source/DualSphDef.h
JCellDivDataGpu.h
/home/prashant/Documents/Git/ForkDSPH/DualSPHysics/src/source/JCellDivDataGpu.h
cuda_runtime_api.h
-

/home/prashant/Documents/Git/ForkDSPH/DualSPHysics/src/source/JSphInOut.cpp
JSphInOut.h
/home/prashant/Documents/Git/ForkDSPH/DualSPHysics/src/source/JSphInOut.h
JSphInOutZone.h
/home/prashant/Documents/Git/ForkDSPH/DualSPHysics/src/source/JSphInOutZone.h
JSphInOutGridData.h
/home/prashant/Documents/Git/ForkDSPH/DualSPHysics/src/source/JSphInOutGridData.h
JSphCpu.h
/home/prashant/Documents/Git/ForkDSPH/DualSPHysics/src/source/JSphCpu.h
JXml.h
/home/prashant/Documents/Git/ForkDSPH/DualSPHysics/src/source/JXml.h
JLog2.h
/home/prashant/Documents/Git/ForkDSPH/DualSPHysics/src/source/JLog2.h
JAppInfo.h
/home/prashant/Documents/Git/ForkDSPH/DualSPHysics/src/source/JAppInfo.h
Functions.h
/home/prashant/Documents/Git/ForkDSPH/DualSPHysics/src/source/Functions.h
FunctionsGeo3d.h
/home/prashant/Documents/Git/ForkDSPH/DualSPHysics/src/source/FunctionsGeo3d.h
JVtkLib.h
/home/prashant/Documents/Git/ForkDSPH/DualSPHysics/src/source/JVtkLib.h
JSimpleNeigs.h
/home/prashant/Documents/Git/ForkDSPH/DualSPHysics/src/source/JSimpleNeigs.h
JTimeControl.h
/home/prashant/Documents/Git/ForkDSPH/DualSPHysics/src/source/JTimeControl.h
JDsGaugeSystem.h
/home/prashant/Documents/Git/ForkDSPH/DualSPHysics/src/source/JDsGaugeSystem.h
JNumexLib.h
/home/prashant/Documents/Git/ForkDSPH/DualSPHysics/src/source/JNumexLib.h
FunctionsCuda.h
/home/prashant/Documents/Git/ForkDSPH/DualSPHysics/src/source/FunctionsCuda.h
JSphGpu_InOut_iker.h
/home/prashant/Documents/Git/ForkDSPH/DualSPHysics/src/source/JSphGpu_InOut_iker.h
JDebugSphGpu.h
/home/prashant/Documents/Git/ForkDSPH/DualSPHysics/src/source/JDebugSphGpu.h
cfloat
-
climits
-
algorithm
-

/home/prashant/Documents/Git/ForkDSPH/DualSPHysics/src/source/JSphInOut.h
string
-
vector
-
JObject.h
/home/prashant/Documents/Git/ForkDSPH/DualSPHysics/src/source/JObject.h
DualSphDef.h
/home/prashant/Documents/Git/ForkDSPH/DualSPHysics/src/source/DualSphDef.h
cuda_runtime_api.h
-
JSphTimersGpu.h
/home/prashant/Documents/Git/ForkDSPH/DualSPHysics/src/source/JSphTimersGpu.h

/home/prashant/Documents/Git/ForkDSPH/DualSPHysics/src/source/JSphInOutGridData.h
string
-
vector
-
JObject.h
/home/prashant/Documents/Git/ForkDSPH/DualSPHysics/src/source/JObject.h
DualSphDef.h
/home/prashant/Documents/Git/ForkDSPH/DualSPHysics/src/source/DualSphDef.h
cuda_runtime_api.h
-

/home/prashant/Documents/Git/ForkDSPH/DualSPHysics/src/source/JSphInOutPoints.h
string
-
vector
-
JObject.h
/home/prashant/Documents/Git/ForkDSPH/DualSPHysics/src/source/JObject.h
JMatrix4.h
/home/prashant/Documents/Git/ForkDSPH/DualSPHysics/src/source/JMatrix4.h
DualSphDef.h
/home/prashant/Documents/Git/ForkDSPH/DualSPHysics/src/source/DualSphDef.h

/home/prashant/Documents/Git/ForkDSPH/DualSPHysics/src/source/JSphInOutZone.h
string
-
vector
-
JObject.h
/home/prashant/Documents/Git/ForkDSPH/DualSPHysics/src/source/JObject.h
DualSphDef.h
/home/prashant/Documents/Git/ForkDSPH/DualSPHysics/src/source/DualSphDef.h
cuda_runtime_api.h
-
JSphTimersGpu.h
/home/prashant/Documents/Git/ForkDSPH/DualSPHysics/src/source/JSphTimersGpu.h

/home/prashant/Documents/Git/ForkDSPH/DualSPHysics/src/source/JSphMk.h
string
-
vector
-
JObject.h
/home/prashant/Documents/Git/ForkDSPH/DualSPHysics/src/source/JObject.h
DualSphDef.h
/home/prashant/Documents/Git/ForkDSPH/DualSPHysics/src/source/DualSphDef.h

/home/prashant/Documents/Git/ForkDSPH/DualSPHysics/src/source/JSphShifting.h
JObject.h
/home/prashant/Documents/Git/ForkDSPH/DualSPHysics/src/source/JObject.h
DualSphDef.h
/home/prashant/Documents/Git/ForkDSPH/DualSPHysics/src/source/DualSphDef.h
JMatrix4.h
/home/prashant/Documents/Git/ForkDSPH/DualSPHysics/src/source/JMatrix4.h
cuda_runtime_api.h
-
string
-
vector
-

/home/prashant/Documents/Git/ForkDSPH/DualSPHysics/src/source/JSphTimersCpu.h
JTimer.h
/home/prashant/Documents/Git/ForkDSPH/DualSPHysics/src/source/JTimer.h

/home/prashant/Documents/Git/ForkDSPH/DualSPHysics/src/source/JSphTimersGpu.h
JTimerCuda.h
/home/prashant/Documents/Git/ForkDSPH/DualSPHysics/src/source/JTimerCuda.h

/home/prashant/Documents/Git/ForkDSPH/DualSPHysics/src/source/JTimeControl.h
JObject.h
/home/prashant/Documents/Git/ForkDSPH/DualSPHysics/src/source/JObject.h
TypesDef.h
/home/prashant/Documents/Git/ForkDSPH/DualSPHysics/src/source/TypesDef.h
JTimer.h
/home/prashant/Documents/Git/ForkDSPH/DualSPHysics/src/source/JTimer.h
string
-
cstdlib
-
vector
-

/home/prashant/Documents/Git/ForkDSPH/DualSPHysics/src/source/JTimer.h
windows.h
-
cstdio
-
sys/time.h
-

/home/prashant/Documents/Git/ForkDSPH/DualSPHysics/src/source/JTimerCuda.h
cuda_runtime_api.h
-

/home/prashant/Documents/Git/ForkDSPH/DualSPHysics/src/source/JVtkLib.h
TypesDef.h
/home/prashant/Documents/Git/ForkDSPH/DualSPHysics/src/source/TypesDef.h
JObject.h
/home/prashant/Documents/Git/ForkDSPH/DualSPHysics/src/source/JObject.h
JDataArrays.h
/home/prashant/Documents/Git/ForkDSPH/DualSPHysics/src/source/JDataArrays.h
string
-
cstring
-
string
-
vector
-
JVtkLibDef.h
/home/prashant/Documents/Git/ForkDSPH/DualSPHysics/src/source/JVtkLibDef.h
JVtkLibUndef.h
/home/prashant/Documents/Git/ForkDSPH/DualSPHysics/src/source/JVtkLibUndef.h

/home/prashant/Documents/Git/ForkDSPH/DualSPHysics/src/source/JVtkLibDef.h

/home/prashant/Documents/Git/ForkDSPH/DualSPHysics/src/source/JVtkLibUndef.h

/home/prashant/Documents/Git/ForkDSPH/DualSPHysics/src/source/JWaveGen.h
DualSphDef.h
/home/prashant/Documents/Git/ForkDSPH/DualSPHysics/src/source/DualSphDef.h
string
-
JWaveGenUndef.h
/home/prashant/Documents/Git/ForkDSPH/DualSPHysics/src/source/JWaveGenUndef.h

/home/prashant/Documents/Git/ForkDSPH/DualSPHysics/src/source/JWaveGenUndef.h

/home/prashant/Documents/Git/ForkDSPH/DualSPHysics/src/source/JXml.h
TypesDef.h
/home/prashant/Documents/Git/ForkDSPH/DualSPHysics/src/source/TypesDef.h
JObject.h
/home/prashant/Documents/Git/ForkDSPH/DualSPHysics/src/source/JObject.h
tinyxml.h
/home/prashant/Documents/Git/ForkDSPH/DualSPHysics/src/source/tinyxml.h
JNumexLibDef.h
/home/prashant/Documents/Git/ForkDSPH/DualSPHysics/src/source/JNumexLibDef.h
string
-

/home/prashant/Documents/Git/ForkDSPH/DualSPHysics/src/source/OmpDefs.h
TypesDef.h
/home/prashant/Documents/Git/ForkDSPH/DualSPHysics/src/source/TypesDef.h
omp.h
-

/home/prashant/Documents/Git/ForkDSPH/DualSPHysics/src/source/TypesDef.h
vector
-

/home/prashant/Documents/Git/ForkDSPH/DualSPHysics/src/source/main.cpp
string
-
cstring
-
iostream
-
sstream
-
fstream
-
JAppInfo.h
/home/prashant/Documents/Git/ForkDSPH/DualSPHysics/src/source/JAppInfo.h
JLog2.h
/home/prashant/Documents/Git/ForkDSPH/DualSPHysics/src/source/JLog2.h
JException.h
/home/prashant/Documents/Git/ForkDSPH/DualSPHysics/src/source/JException.h
JSphCfgRun.h
/home/prashant/Documents/Git/ForkDSPH/DualSPHysics/src/source/JSphCfgRun.h
JSphCpuSingle.h
/home/prashant/Documents/Git/ForkDSPH/DualSPHysics/src/source/JSphCpuSingle.h
JSphGpuSingle.h
/home/prashant/Documents/Git/ForkDSPH/DualSPHysics/src/source/JSphGpuSingle.h

/home/prashant/Documents/Git/ForkDSPH/DualSPHysics/src/source/tinystr.h
assert.h
-
string.h
-

/home/prashant/Documents/Git/ForkDSPH/DualSPHysics/src/source/tinyxml.h
ctype.h
-
stdio.h
-
stdlib.h
-
string.h
-
assert.h
-
string
-
iostream
-
sstream
-
tinystr.h
/home/prashant/Documents/Git/ForkDSPH/DualSPHysics/src/source/tinystr.h

/usr/local/cuda-10.1/include/builtin_types.h
device_types.h
/usr/local/cuda-10.1/include/device_types.h
driver_types.h
/usr/local/cuda-10.1/include/driver_types.h
surface_types.h
/usr/local/cuda-10.1/include/surface_types.h
texture_types.h
/usr/local/cuda-10.1/include/texture_types.h
vector_types.h
/usr/local/cuda-10.1/include/vector_types.h

/usr/local/cuda-10.1/include/crt/host_defines.h

/usr/local/cuda-10.1/include/cuda_device_runtime_api.h
driver_types.h
/usr/local/cuda-10.1/include/driver_types.h
crt/host_defines.h
/usr/local/cuda-10.1/include/crt/host_defines.h

/usr/local/cuda-10.1/include/cuda_runtime_api.h
crt/host_defines.h
/usr/local/cuda-10.1/include/crt/host_defines.h
builtin_types.h
/usr/local/cuda-10.1/include/builtin_types.h
cuda_device_runtime_api.h
/usr/local/cuda-10.1/include/cuda_device_runtime_api.h

/usr/local/cuda-10.1/include/device_types.h
crt/host_defines.h
/usr/local/cuda-10.1/include/crt/host_defines.h

/usr/local/cuda-10.1/include/driver_types.h
crt/host_defines.h
/usr/local/cuda-10.1/include/crt/host_defines.h
vector_types.h
/usr/local/cuda-10.1/include/vector_types.h
limits.h
-
stddef.h
-

/usr/local/cuda-10.1/include/surface_types.h
driver_types.h
/usr/local/cuda-10.1/include/driver_types.h

/usr/local/cuda-10.1/include/texture_types.h
driver_types.h
/usr/local/cuda-10.1/include/driver_types.h

/usr/local/cuda-10.1/include/vector_types.h
crt/host_defines.h
/usr/local/cuda-10.1/include/crt/host_defines.h

