# CMAKE generated file: DO NOT EDIT!
# Generated by "Unix Makefiles" Generator, CMake Version 3.16

CMakeFiles/DualSPHysics5.0CPU_linux64.dir/FunSphKernelsCfg.cpp.o
 /home/prashant/Documents/Git/ForkDSPH/DualSPHysics/src/source/DualSphDef.h
 /home/prashant/Documents/Git/ForkDSPH/DualSPHysics/src/source/FunSphKernel.h
 /home/prashant/Documents/Git/ForkDSPH/DualSPHysics/src/source/FunSphKernelDef.h
 /home/prashant/Documents/Git/ForkDSPH/DualSPHysics/src/source/FunSphKernelsCfg.cpp
 /home/prashant/Documents/Git/ForkDSPH/DualSPHysics/src/source/FunSphKernelsCfg.h
 /home/prashant/Documents/Git/ForkDSPH/DualSPHysics/src/source/Functions.h
 /home/prashant/Documents/Git/ForkDSPH/DualSPHysics/src/source/JNumexLibDef.h
 /home/prashant/Documents/Git/ForkDSPH/DualSPHysics/src/source/JParticlesDef.h
 /home/prashant/Documents/Git/ForkDSPH/DualSPHysics/src/source/JPeriodicDef.h
 /home/prashant/Documents/Git/ForkDSPH/DualSPHysics/src/source/JVtkLibDef.h
 /home/prashant/Documents/Git/ForkDSPH/DualSPHysics/src/source/OmpDefs.h
 /home/prashant/Documents/Git/ForkDSPH/DualSPHysics/src/source/TypesDef.h
CMakeFiles/DualSPHysics5.0CPU_linux64.dir/Functions.cpp.o
 /home/prashant/Documents/Git/ForkDSPH/DualSPHysics/src/source/Functions.cpp
 /home/prashant/Documents/Git/ForkDSPH/DualSPHysics/src/source/Functions.h
 /home/prashant/Documents/Git/ForkDSPH/DualSPHysics/src/source/TypesDef.h
CMakeFiles/DualSPHysics5.0CPU_linux64.dir/FunctionsGeo3d.cpp.o
 /home/prashant/Documents/Git/ForkDSPH/DualSPHysics/src/source/Functions.h
 /home/prashant/Documents/Git/ForkDSPH/DualSPHysics/src/source/FunctionsGeo3d.cpp
 /home/prashant/Documents/Git/ForkDSPH/DualSPHysics/src/source/FunctionsGeo3d.h
 /home/prashant/Documents/Git/ForkDSPH/DualSPHysics/src/source/FunctionsMath.h
 /home/prashant/Documents/Git/ForkDSPH/DualSPHysics/src/source/TypesDef.h
CMakeFiles/DualSPHysics5.0CPU_linux64.dir/JAppInfo.cpp.o
 /home/prashant/Documents/Git/ForkDSPH/DualSPHysics/src/source/Functions.h
 /home/prashant/Documents/Git/ForkDSPH/DualSPHysics/src/source/JAppInfo.cpp
 /home/prashant/Documents/Git/ForkDSPH/DualSPHysics/src/source/JAppInfo.h
 /home/prashant/Documents/Git/ForkDSPH/DualSPHysics/src/source/JAppInfoDef.h
 /home/prashant/Documents/Git/ForkDSPH/DualSPHysics/src/source/JLog2.h
 /home/prashant/Documents/Git/ForkDSPH/DualSPHysics/src/source/JObject.h
 /home/prashant/Documents/Git/ForkDSPH/DualSPHysics/src/source/TypesDef.h
CMakeFiles/DualSPHysics5.0CPU_linux64.dir/JArraysCpu.cpp.o
 /home/prashant/Documents/Git/ForkDSPH/DualSPHysics/src/source/DualSphDef.h
 /home/prashant/Documents/Git/ForkDSPH/DualSPHysics/src/source/FunSphKernelDef.h
 /home/prashant/Documents/Git/ForkDSPH/DualSPHysics/src/source/Functions.h
 /home/prashant/Documents/Git/ForkDSPH/DualSPHysics/src/source/JArraysCpu.cpp
 /home/prashant/Documents/Git/ForkDSPH/DualSPHysics/src/source/JArraysCpu.h
 /home/prashant/Documents/Git/ForkDSPH/DualSPHysics/src/source/JNumexLibDef.h
 /home/prashant/Documents/Git/ForkDSPH/DualSPHysics/src/source/JObject.h
 /home/prashant/Documents/Git/ForkDSPH/DualSPHysics/src/source/JParticlesDef.h
 /home/prashant/Documents/Git/ForkDSPH/DualSPHysics/src/source/JPeriodicDef.h
 /home/prashant/Documents/Git/ForkDSPH/DualSPHysics/src/source/JVtkLibDef.h
 /home/prashant/Documents/Git/ForkDSPH/DualSPHysics/src/source/OmpDefs.h
 /home/prashant/Documents/Git/ForkDSPH/DualSPHysics/src/source/TypesDef.h
CMakeFiles/DualSPHysics5.0CPU_linux64.dir/JBinaryData.cpp.o
 /home/prashant/Documents/Git/ForkDSPH/DualSPHysics/src/source/Functions.h
 /home/prashant/Documents/Git/ForkDSPH/DualSPHysics/src/source/JBinaryData.cpp
 /home/prashant/Documents/Git/ForkDSPH/DualSPHysics/src/source/JBinaryData.h
 /home/prashant/Documents/Git/ForkDSPH/DualSPHysics/src/source/JObject.h
 /home/prashant/Documents/Git/ForkDSPH/DualSPHysics/src/source/TypesDef.h
CMakeFiles/DualSPHysics5.0CPU_linux64.dir/JCaseCtes.cpp.o
 /home/prashant/Documents/Git/ForkDSPH/DualSPHysics/src/source/Functions.h
 /home/prashant/Documents/Git/ForkDSPH/DualSPHysics/src/source/JCaseCtes.cpp
 /home/prashant/Documents/Git/ForkDSPH/DualSPHysics/src/source/JCaseCtes.h
 /home/prashant/Documents/Git/ForkDSPH/DualSPHysics/src/source/JNumexLibDef.h
 /home/prashant/Documents/Git/ForkDSPH/DualSPHysics/src/source/JObject.h
 /home/prashant/Documents/Git/ForkDSPH/DualSPHysics/src/source/JXml.h
 /home/prashant/Documents/Git/ForkDSPH/DualSPHysics/src/source/TypesDef.h
 /home/prashant/Documents/Git/ForkDSPH/DualSPHysics/src/source/tinystr.h
 /home/prashant/Documents/Git/ForkDSPH/DualSPHysics/src/source/tinyxml.h
CMakeFiles/DualSPHysics5.0CPU_linux64.dir/JCaseEParms.cpp.o
 /home/prashant/Documents/Git/ForkDSPH/DualSPHysics/src/source/Functions.h
 /home/prashant/Documents/Git/ForkDSPH/DualSPHysics/src/source/JCaseEParms.cpp
 /home/prashant/Documents/Git/ForkDSPH/DualSPHysics/src/source/JCaseEParms.h
 /home/prashant/Documents/Git/ForkDSPH/DualSPHysics/src/source/JNumexLibDef.h
 /home/prashant/Documents/Git/ForkDSPH/DualSPHysics/src/source/JObject.h
 /home/prashant/Documents/Git/ForkDSPH/DualSPHysics/src/source/JXml.h
 /home/prashant/Documents/Git/ForkDSPH/DualSPHysics/src/source/TypesDef.h
 /home/prashant/Documents/Git/ForkDSPH/DualSPHysics/src/source/tinystr.h
 /home/prashant/Documents/Git/ForkDSPH/DualSPHysics/src/source/tinyxml.h
CMakeFiles/DualSPHysics5.0CPU_linux64.dir/JCaseParts.cpp.o
 /home/prashant/Documents/Git/ForkDSPH/DualSPHysics/src/source/Functions.h
 /home/prashant/Documents/Git/ForkDSPH/DualSPHysics/src/source/JCaseParts.cpp
 /home/prashant/Documents/Git/ForkDSPH/DualSPHysics/src/source/JCaseParts.h
 /home/prashant/Documents/Git/ForkDSPH/DualSPHysics/src/source/JCasePartsDef.h
 /home/prashant/Documents/Git/ForkDSPH/DualSPHysics/src/source/JCaseProperties.h
 /home/prashant/Documents/Git/ForkDSPH/DualSPHysics/src/source/JLinearValue.h
 /home/prashant/Documents/Git/ForkDSPH/DualSPHysics/src/source/JLinearValueDef.h
 /home/prashant/Documents/Git/ForkDSPH/DualSPHysics/src/source/JNumexLibDef.h
 /home/prashant/Documents/Git/ForkDSPH/DualSPHysics/src/source/JObject.h
 /home/prashant/Documents/Git/ForkDSPH/DualSPHysics/src/source/JParticlesDef.h
 /home/prashant/Documents/Git/ForkDSPH/DualSPHysics/src/source/JRangeFilter.h
 /home/prashant/Documents/Git/ForkDSPH/DualSPHysics/src/source/JXml.h
 /home/prashant/Documents/Git/ForkDSPH/DualSPHysics/src/source/TypesDef.h
 /home/prashant/Documents/Git/ForkDSPH/DualSPHysics/src/source/tinystr.h
 /home/prashant/Documents/Git/ForkDSPH/DualSPHysics/src/source/tinyxml.h
CMakeFiles/DualSPHysics5.0CPU_linux64.dir/JCaseProperties.cpp.o
 /home/prashant/Documents/Git/ForkDSPH/DualSPHysics/src/source/Functions.h
 /home/prashant/Documents/Git/ForkDSPH/DualSPHysics/src/source/JCaseProperties.cpp
 /home/prashant/Documents/Git/ForkDSPH/DualSPHysics/src/source/JCaseProperties.h
 /home/prashant/Documents/Git/ForkDSPH/DualSPHysics/src/source/JNumexLibDef.h
 /home/prashant/Documents/Git/ForkDSPH/DualSPHysics/src/source/JObject.h
 /home/prashant/Documents/Git/ForkDSPH/DualSPHysics/src/source/JRangeFilter.h
 /home/prashant/Documents/Git/ForkDSPH/DualSPHysics/src/source/JXml.h
 /home/prashant/Documents/Git/ForkDSPH/DualSPHysics/src/source/TypesDef.h
 /home/prashant/Documents/Git/ForkDSPH/DualSPHysics/src/source/tinystr.h
 /home/prashant/Documents/Git/ForkDSPH/DualSPHysics/src/source/tinyxml.h
CMakeFiles/DualSPHysics5.0CPU_linux64.dir/JCaseUserVars.cpp.o
 /home/prashant/Documents/Git/ForkDSPH/DualSPHysics/src/source/Functions.h
 /home/prashant/Documents/Git/ForkDSPH/DualSPHysics/src/source/JCaseUserVars.cpp
 /home/prashant/Documents/Git/ForkDSPH/DualSPHysics/src/source/JCaseUserVars.h
 /home/prashant/Documents/Git/ForkDSPH/DualSPHysics/src/source/JNumexLib.h
 /home/prashant/Documents/Git/ForkDSPH/DualSPHysics/src/source/JNumexLibDef.h
 /home/prashant/Documents/Git/ForkDSPH/DualSPHysics/src/source/JNumexLibUndef.h
 /home/prashant/Documents/Git/ForkDSPH/DualSPHysics/src/source/JObject.h
 /home/prashant/Documents/Git/ForkDSPH/DualSPHysics/src/source/JXml.h
 /home/prashant/Documents/Git/ForkDSPH/DualSPHysics/src/source/TypesDef.h
 /home/prashant/Documents/Git/ForkDSPH/DualSPHysics/src/source/tinystr.h
 /home/prashant/Documents/Git/ForkDSPH/DualSPHysics/src/source/tinyxml.h
CMakeFiles/DualSPHysics5.0CPU_linux64.dir/JCaseVtkOut.cpp.o
 /home/prashant/Documents/Git/ForkDSPH/DualSPHysics/src/source/Functions.h
 /home/prashant/Documents/Git/ForkDSPH/DualSPHysics/src/source/JCaseVtkOut.cpp
 /home/prashant/Documents/Git/ForkDSPH/DualSPHysics/src/source/JCaseVtkOut.h
 /home/prashant/Documents/Git/ForkDSPH/DualSPHysics/src/source/JNumexLibDef.h
 /home/prashant/Documents/Git/ForkDSPH/DualSPHysics/src/source/JObject.h
 /home/prashant/Documents/Git/ForkDSPH/DualSPHysics/src/source/JRangeFilter.h
 /home/prashant/Documents/Git/ForkDSPH/DualSPHysics/src/source/JXml.h
 /home/prashant/Documents/Git/ForkDSPH/DualSPHysics/src/source/TypesDef.h
 /home/prashant/Documents/Git/ForkDSPH/DualSPHysics/src/source/tinystr.h
 /home/prashant/Documents/Git/ForkDSPH/DualSPHysics/src/source/tinyxml.h
CMakeFiles/DualSPHysics5.0CPU_linux64.dir/JCellDivCpu.cpp.o
 /home/prashant/Documents/Git/ForkDSPH/DualSPHysics/src/source/DualSphDef.h
 /home/prashant/Documents/Git/ForkDSPH/DualSPHysics/src/source/FunSphKernelDef.h
 /home/prashant/Documents/Git/ForkDSPH/DualSPHysics/src/source/Functions.h
 /home/prashant/Documents/Git/ForkDSPH/DualSPHysics/src/source/JCellDivCpu.cpp
 /home/prashant/Documents/Git/ForkDSPH/DualSPHysics/src/source/JCellDivCpu.h
 /home/prashant/Documents/Git/ForkDSPH/DualSPHysics/src/source/JCellDivDataCpu.h
 /home/prashant/Documents/Git/ForkDSPH/DualSPHysics/src/source/JLog2.h
 /home/prashant/Documents/Git/ForkDSPH/DualSPHysics/src/source/JNumexLibDef.h
 /home/prashant/Documents/Git/ForkDSPH/DualSPHysics/src/source/JObject.h
 /home/prashant/Documents/Git/ForkDSPH/DualSPHysics/src/source/JParticlesDef.h
 /home/prashant/Documents/Git/ForkDSPH/DualSPHysics/src/source/JPeriodicDef.h
 /home/prashant/Documents/Git/ForkDSPH/DualSPHysics/src/source/JSphTimersCpu.h
 /home/prashant/Documents/Git/ForkDSPH/DualSPHysics/src/source/JTimer.h
 /home/prashant/Documents/Git/ForkDSPH/DualSPHysics/src/source/JVtkLibDef.h
 /home/prashant/Documents/Git/ForkDSPH/DualSPHysics/src/source/OmpDefs.h
 /home/prashant/Documents/Git/ForkDSPH/DualSPHysics/src/source/TypesDef.h
CMakeFiles/DualSPHysics5.0CPU_linux64.dir/JCellDivCpuSingle.cpp.o
 /home/prashant/Documents/Git/ForkDSPH/DualSPHysics/src/source/DualSphDef.h
 /home/prashant/Documents/Git/ForkDSPH/DualSPHysics/src/source/FunSphKernelDef.h
 /home/prashant/Documents/Git/ForkDSPH/DualSPHysics/src/source/Functions.h
 /home/prashant/Documents/Git/ForkDSPH/DualSPHysics/src/source/JCellDivCpu.h
 /home/prashant/Documents/Git/ForkDSPH/DualSPHysics/src/source/JCellDivCpuSingle.cpp
 /home/prashant/Documents/Git/ForkDSPH/DualSPHysics/src/source/JCellDivCpuSingle.h
 /home/prashant/Documents/Git/ForkDSPH/DualSPHysics/src/source/JCellDivDataCpu.h
 /home/prashant/Documents/Git/ForkDSPH/DualSPHysics/src/source/JLog2.h
 /home/prashant/Documents/Git/ForkDSPH/DualSPHysics/src/source/JNumexLibDef.h
 /home/prashant/Documents/Git/ForkDSPH/DualSPHysics/src/source/JObject.h
 /home/prashant/Documents/Git/ForkDSPH/DualSPHysics/src/source/JParticlesDef.h
 /home/prashant/Documents/Git/ForkDSPH/DualSPHysics/src/source/JPeriodicDef.h
 /home/prashant/Documents/Git/ForkDSPH/DualSPHysics/src/source/JSphTimersCpu.h
 /home/prashant/Documents/Git/ForkDSPH/DualSPHysics/src/source/JTimer.h
 /home/prashant/Documents/Git/ForkDSPH/DualSPHysics/src/source/JVtkLibDef.h
 /home/prashant/Documents/Git/ForkDSPH/DualSPHysics/src/source/OmpDefs.h
 /home/prashant/Documents/Git/ForkDSPH/DualSPHysics/src/source/TypesDef.h
CMakeFiles/DualSPHysics5.0CPU_linux64.dir/JCfgRunBase.cpp.o
 /home/prashant/Documents/Git/ForkDSPH/DualSPHysics/src/source/Functions.h
 /home/prashant/Documents/Git/ForkDSPH/DualSPHysics/src/source/JAppInfo.h
 /home/prashant/Documents/Git/ForkDSPH/DualSPHysics/src/source/JAppInfoDef.h
 /home/prashant/Documents/Git/ForkDSPH/DualSPHysics/src/source/JCfgRunBase.cpp
 /home/prashant/Documents/Git/ForkDSPH/DualSPHysics/src/source/JCfgRunBase.h
 /home/prashant/Documents/Git/ForkDSPH/DualSPHysics/src/source/JDsphConfig.h
 /home/prashant/Documents/Git/ForkDSPH/DualSPHysics/src/source/JObject.h
 /home/prashant/Documents/Git/ForkDSPH/DualSPHysics/src/source/TypesDef.h
CMakeFiles/DualSPHysics5.0CPU_linux64.dir/JChronoObjects.cpp.o
 /home/prashant/Documents/Git/ForkDSPH/DualSPHysics/src/source/DSPHChronoLib.h
 /home/prashant/Documents/Git/ForkDSPH/DualSPHysics/src/source/DualSphDef.h
 /home/prashant/Documents/Git/ForkDSPH/DualSPHysics/src/source/FunSphKernelDef.h
 /home/prashant/Documents/Git/ForkDSPH/DualSPHysics/src/source/Functions.h
 /home/prashant/Documents/Git/ForkDSPH/DualSPHysics/src/source/FunctionsGeo3d.h
 /home/prashant/Documents/Git/ForkDSPH/DualSPHysics/src/source/JAppInfo.h
 /home/prashant/Documents/Git/ForkDSPH/DualSPHysics/src/source/JAppInfoDef.h
 /home/prashant/Documents/Git/ForkDSPH/DualSPHysics/src/source/JCaseParts.h
 /home/prashant/Documents/Git/ForkDSPH/DualSPHysics/src/source/JCasePartsDef.h
 /home/prashant/Documents/Git/ForkDSPH/DualSPHysics/src/source/JCaseVtkOut.h
 /home/prashant/Documents/Git/ForkDSPH/DualSPHysics/src/source/JChronoData.h
 /home/prashant/Documents/Git/ForkDSPH/DualSPHysics/src/source/JChronoObjects.cpp
 /home/prashant/Documents/Git/ForkDSPH/DualSPHysics/src/source/JChronoObjects.h
 /home/prashant/Documents/Git/ForkDSPH/DualSPHysics/src/source/JChronoObjectsUndef.h
 /home/prashant/Documents/Git/ForkDSPH/DualSPHysics/src/source/JDataArrays.h
 /home/prashant/Documents/Git/ForkDSPH/DualSPHysics/src/source/JLog2.h
 /home/prashant/Documents/Git/ForkDSPH/DualSPHysics/src/source/JNumexLibDef.h
 /home/prashant/Documents/Git/ForkDSPH/DualSPHysics/src/source/JObject.h
 /home/prashant/Documents/Git/ForkDSPH/DualSPHysics/src/source/JParticlesDef.h
 /home/prashant/Documents/Git/ForkDSPH/DualSPHysics/src/source/JPeriodicDef.h
 /home/prashant/Documents/Git/ForkDSPH/DualSPHysics/src/source/JRangeFilter.h
 /home/prashant/Documents/Git/ForkDSPH/DualSPHysics/src/source/JSaveCsv2.h
 /home/prashant/Documents/Git/ForkDSPH/DualSPHysics/src/source/JSphMk.h
 /home/prashant/Documents/Git/ForkDSPH/DualSPHysics/src/source/JVtkLib.h
 /home/prashant/Documents/Git/ForkDSPH/DualSPHysics/src/source/JVtkLibDef.h
 /home/prashant/Documents/Git/ForkDSPH/DualSPHysics/src/source/JVtkLibUndef.h
 /home/prashant/Documents/Git/ForkDSPH/DualSPHysics/src/source/JXml.h
 /home/prashant/Documents/Git/ForkDSPH/DualSPHysics/src/source/OmpDefs.h
 /home/prashant/Documents/Git/ForkDSPH/DualSPHysics/src/source/TypesDef.h
 /home/prashant/Documents/Git/ForkDSPH/DualSPHysics/src/source/tinystr.h
 /home/prashant/Documents/Git/ForkDSPH/DualSPHysics/src/source/tinyxml.h
CMakeFiles/DualSPHysics5.0CPU_linux64.dir/JDataArrays.cpp.o
 /home/prashant/Documents/Git/ForkDSPH/DualSPHysics/src/source/Functions.h
 /home/prashant/Documents/Git/ForkDSPH/DualSPHysics/src/source/JDataArrays.cpp
 /home/prashant/Documents/Git/ForkDSPH/DualSPHysics/src/source/JDataArrays.h
 /home/prashant/Documents/Git/ForkDSPH/DualSPHysics/src/source/JException.h
 /home/prashant/Documents/Git/ForkDSPH/DualSPHysics/src/source/JObject.h
 /home/prashant/Documents/Git/ForkDSPH/DualSPHysics/src/source/TypesDef.h
CMakeFiles/DualSPHysics5.0CPU_linux64.dir/JDsAccInput.cpp.o
 /home/prashant/Documents/Git/ForkDSPH/DualSPHysics/src/source/DualSphDef.h
 /home/prashant/Documents/Git/ForkDSPH/DualSPHysics/src/source/FunSphKernelDef.h
 /home/prashant/Documents/Git/ForkDSPH/DualSPHysics/src/source/Functions.h
 /home/prashant/Documents/Git/ForkDSPH/DualSPHysics/src/source/JDsAccInput.cpp
 /home/prashant/Documents/Git/ForkDSPH/DualSPHysics/src/source/JDsAccInput.h
 /home/prashant/Documents/Git/ForkDSPH/DualSPHysics/src/source/JDsAccInput_ker.h
 /home/prashant/Documents/Git/ForkDSPH/DualSPHysics/src/source/JLinearValue.h
 /home/prashant/Documents/Git/ForkDSPH/DualSPHysics/src/source/JLinearValueDef.h
 /home/prashant/Documents/Git/ForkDSPH/DualSPHysics/src/source/JLog2.h
 /home/prashant/Documents/Git/ForkDSPH/DualSPHysics/src/source/JNumexLibDef.h
 /home/prashant/Documents/Git/ForkDSPH/DualSPHysics/src/source/JObject.h
 /home/prashant/Documents/Git/ForkDSPH/DualSPHysics/src/source/JParticlesDef.h
 /home/prashant/Documents/Git/ForkDSPH/DualSPHysics/src/source/JPeriodicDef.h
 /home/prashant/Documents/Git/ForkDSPH/DualSPHysics/src/source/JRangeFilter.h
 /home/prashant/Documents/Git/ForkDSPH/DualSPHysics/src/source/JSphMk.h
 /home/prashant/Documents/Git/ForkDSPH/DualSPHysics/src/source/JVtkLibDef.h
 /home/prashant/Documents/Git/ForkDSPH/DualSPHysics/src/source/JXml.h
 /home/prashant/Documents/Git/ForkDSPH/DualSPHysics/src/source/OmpDefs.h
 /home/prashant/Documents/Git/ForkDSPH/DualSPHysics/src/source/TypesDef.h
 /home/prashant/Documents/Git/ForkDSPH/DualSPHysics/src/source/tinystr.h
 /home/prashant/Documents/Git/ForkDSPH/DualSPHysics/src/source/tinyxml.h
 /usr/local/cuda-10.1/include/builtin_types.h
 /usr/local/cuda-10.1/include/crt/host_defines.h
 /usr/local/cuda-10.1/include/cuda_device_runtime_api.h
 /usr/local/cuda-10.1/include/cuda_runtime_api.h
 /usr/local/cuda-10.1/include/device_types.h
 /usr/local/cuda-10.1/include/driver_types.h
 /usr/local/cuda-10.1/include/surface_types.h
 /usr/local/cuda-10.1/include/texture_types.h
 /usr/local/cuda-10.1/include/vector_types.h
CMakeFiles/DualSPHysics5.0CPU_linux64.dir/JDsDamping.cpp.o
 /home/prashant/Documents/Git/ForkDSPH/DualSPHysics/src/source/DualSphDef.h
 /home/prashant/Documents/Git/ForkDSPH/DualSPHysics/src/source/FunSphKernelDef.h
 /home/prashant/Documents/Git/ForkDSPH/DualSPHysics/src/source/Functions.h
 /home/prashant/Documents/Git/ForkDSPH/DualSPHysics/src/source/FunctionsGeo3d.h
 /home/prashant/Documents/Git/ForkDSPH/DualSPHysics/src/source/JAppInfo.h
 /home/prashant/Documents/Git/ForkDSPH/DualSPHysics/src/source/JAppInfoDef.h
 /home/prashant/Documents/Git/ForkDSPH/DualSPHysics/src/source/JDataArrays.h
 /home/prashant/Documents/Git/ForkDSPH/DualSPHysics/src/source/JDsDamping.cpp
 /home/prashant/Documents/Git/ForkDSPH/DualSPHysics/src/source/JDsDamping.h
 /home/prashant/Documents/Git/ForkDSPH/DualSPHysics/src/source/JLog2.h
 /home/prashant/Documents/Git/ForkDSPH/DualSPHysics/src/source/JNumexLibDef.h
 /home/prashant/Documents/Git/ForkDSPH/DualSPHysics/src/source/JObject.h
 /home/prashant/Documents/Git/ForkDSPH/DualSPHysics/src/source/JParticlesDef.h
 /home/prashant/Documents/Git/ForkDSPH/DualSPHysics/src/source/JPeriodicDef.h
 /home/prashant/Documents/Git/ForkDSPH/DualSPHysics/src/source/JVtkLib.h
 /home/prashant/Documents/Git/ForkDSPH/DualSPHysics/src/source/JVtkLibDef.h
 /home/prashant/Documents/Git/ForkDSPH/DualSPHysics/src/source/JVtkLibUndef.h
 /home/prashant/Documents/Git/ForkDSPH/DualSPHysics/src/source/JXml.h
 /home/prashant/Documents/Git/ForkDSPH/DualSPHysics/src/source/OmpDefs.h
 /home/prashant/Documents/Git/ForkDSPH/DualSPHysics/src/source/TypesDef.h
 /home/prashant/Documents/Git/ForkDSPH/DualSPHysics/src/source/tinystr.h
 /home/prashant/Documents/Git/ForkDSPH/DualSPHysics/src/source/tinyxml.h
CMakeFiles/DualSPHysics5.0CPU_linux64.dir/JDsFixedDt.cpp.o
 /home/prashant/Documents/Git/ForkDSPH/DualSPHysics/src/source/DualSphDef.h
 /home/prashant/Documents/Git/ForkDSPH/DualSPHysics/src/source/FunSphKernelDef.h
 /home/prashant/Documents/Git/ForkDSPH/DualSPHysics/src/source/Functions.h
 /home/prashant/Documents/Git/ForkDSPH/DualSPHysics/src/source/JDsFixedDt.cpp
 /home/prashant/Documents/Git/ForkDSPH/DualSPHysics/src/source/JDsFixedDt.h
 /home/prashant/Documents/Git/ForkDSPH/DualSPHysics/src/source/JNumexLibDef.h
 /home/prashant/Documents/Git/ForkDSPH/DualSPHysics/src/source/JObject.h
 /home/prashant/Documents/Git/ForkDSPH/DualSPHysics/src/source/JParticlesDef.h
 /home/prashant/Documents/Git/ForkDSPH/DualSPHysics/src/source/JPeriodicDef.h
 /home/prashant/Documents/Git/ForkDSPH/DualSPHysics/src/source/JReadDatafile.h
 /home/prashant/Documents/Git/ForkDSPH/DualSPHysics/src/source/JTimer.h
 /home/prashant/Documents/Git/ForkDSPH/DualSPHysics/src/source/JVtkLibDef.h
 /home/prashant/Documents/Git/ForkDSPH/DualSPHysics/src/source/OmpDefs.h
 /home/prashant/Documents/Git/ForkDSPH/DualSPHysics/src/source/TypesDef.h
CMakeFiles/DualSPHysics5.0CPU_linux64.dir/JDsFtForcePoints.cpp.o
 /home/prashant/Documents/Git/ForkDSPH/DualSPHysics/src/source/DualSphDef.h
 /home/prashant/Documents/Git/ForkDSPH/DualSPHysics/src/source/FunSphKernelDef.h
 /home/prashant/Documents/Git/ForkDSPH/DualSPHysics/src/source/Functions.h
 /home/prashant/Documents/Git/ForkDSPH/DualSPHysics/src/source/FunctionsGeo3d.h
 /home/prashant/Documents/Git/ForkDSPH/DualSPHysics/src/source/JAppInfo.h
 /home/prashant/Documents/Git/ForkDSPH/DualSPHysics/src/source/JAppInfoDef.h
 /home/prashant/Documents/Git/ForkDSPH/DualSPHysics/src/source/JDataArrays.h
 /home/prashant/Documents/Git/ForkDSPH/DualSPHysics/src/source/JDsFtForcePoints.cpp
 /home/prashant/Documents/Git/ForkDSPH/DualSPHysics/src/source/JDsFtForcePoints.h
 /home/prashant/Documents/Git/ForkDSPH/DualSPHysics/src/source/JLog2.h
 /home/prashant/Documents/Git/ForkDSPH/DualSPHysics/src/source/JNumexLibDef.h
 /home/prashant/Documents/Git/ForkDSPH/DualSPHysics/src/source/JObject.h
 /home/prashant/Documents/Git/ForkDSPH/DualSPHysics/src/source/JParticlesDef.h
 /home/prashant/Documents/Git/ForkDSPH/DualSPHysics/src/source/JPeriodicDef.h
 /home/prashant/Documents/Git/ForkDSPH/DualSPHysics/src/source/JSaveCsv2.h
 /home/prashant/Documents/Git/ForkDSPH/DualSPHysics/src/source/JSphMk.h
 /home/prashant/Documents/Git/ForkDSPH/DualSPHysics/src/source/JVtkLib.h
 /home/prashant/Documents/Git/ForkDSPH/DualSPHysics/src/source/JVtkLibDef.h
 /home/prashant/Documents/Git/ForkDSPH/DualSPHysics/src/source/JVtkLibUndef.h
 /home/prashant/Documents/Git/ForkDSPH/DualSPHysics/src/source/OmpDefs.h
 /home/prashant/Documents/Git/ForkDSPH/DualSPHysics/src/source/TypesDef.h
CMakeFiles/DualSPHysics5.0CPU_linux64.dir/JDsGaugeItem.cpp.o
 /home/prashant/Documents/Git/ForkDSPH/DualSPHysics/src/source/DualSphDef.h
 /home/prashant/Documents/Git/ForkDSPH/DualSPHysics/src/source/FunSphEos.h
 /home/prashant/Documents/Git/ForkDSPH/DualSPHysics/src/source/FunSphKernel.h
 /home/prashant/Documents/Git/ForkDSPH/DualSPHysics/src/source/FunSphKernelDef.h
 /home/prashant/Documents/Git/ForkDSPH/DualSPHysics/src/source/Functions.h
 /home/prashant/Documents/Git/ForkDSPH/DualSPHysics/src/source/FunctionsCuda.h
 /home/prashant/Documents/Git/ForkDSPH/DualSPHysics/src/source/FunctionsGeo3d.h
 /home/prashant/Documents/Git/ForkDSPH/DualSPHysics/src/source/JAppInfo.h
 /home/prashant/Documents/Git/ForkDSPH/DualSPHysics/src/source/JAppInfoDef.h
 /home/prashant/Documents/Git/ForkDSPH/DualSPHysics/src/source/JCellDivDataCpu.h
 /home/prashant/Documents/Git/ForkDSPH/DualSPHysics/src/source/JCellDivDataGpu.h
 /home/prashant/Documents/Git/ForkDSPH/DualSPHysics/src/source/JCellSearch_inline.h
 /home/prashant/Documents/Git/ForkDSPH/DualSPHysics/src/source/JDataArrays.h
 /home/prashant/Documents/Git/ForkDSPH/DualSPHysics/src/source/JDsGaugeItem.cpp
 /home/prashant/Documents/Git/ForkDSPH/DualSPHysics/src/source/JDsGaugeItem.h
 /home/prashant/Documents/Git/ForkDSPH/DualSPHysics/src/source/JDsGauge_ker.h
 /home/prashant/Documents/Git/ForkDSPH/DualSPHysics/src/source/JException.h
 /home/prashant/Documents/Git/ForkDSPH/DualSPHysics/src/source/JLog2.h
 /home/prashant/Documents/Git/ForkDSPH/DualSPHysics/src/source/JNumexLibDef.h
 /home/prashant/Documents/Git/ForkDSPH/DualSPHysics/src/source/JObject.h
 /home/prashant/Documents/Git/ForkDSPH/DualSPHysics/src/source/JParticlesDef.h
 /home/prashant/Documents/Git/ForkDSPH/DualSPHysics/src/source/JPeriodicDef.h
 /home/prashant/Documents/Git/ForkDSPH/DualSPHysics/src/source/JReduSum_ker.h
 /home/prashant/Documents/Git/ForkDSPH/DualSPHysics/src/source/JSaveCsv2.h
 /home/prashant/Documents/Git/ForkDSPH/DualSPHysics/src/source/JVtkLib.h
 /home/prashant/Documents/Git/ForkDSPH/DualSPHysics/src/source/JVtkLibDef.h
 /home/prashant/Documents/Git/ForkDSPH/DualSPHysics/src/source/JVtkLibUndef.h
 /home/prashant/Documents/Git/ForkDSPH/DualSPHysics/src/source/OmpDefs.h
 /home/prashant/Documents/Git/ForkDSPH/DualSPHysics/src/source/TypesDef.h
 /usr/local/cuda-10.1/include/builtin_types.h
 /usr/local/cuda-10.1/include/crt/host_defines.h
 /usr/local/cuda-10.1/include/cuda_device_runtime_api.h
 /usr/local/cuda-10.1/include/cuda_runtime_api.h
 /usr/local/cuda-10.1/include/device_types.h
 /usr/local/cuda-10.1/include/driver_types.h
 /usr/local/cuda-10.1/include/surface_types.h
 /usr/local/cuda-10.1/include/texture_types.h
 /usr/local/cuda-10.1/include/vector_types.h
CMakeFiles/DualSPHysics5.0CPU_linux64.dir/JDsGaugeSystem.cpp.o
 /home/prashant/Documents/Git/ForkDSPH/DualSPHysics/src/source/DualSphDef.h
 /home/prashant/Documents/Git/ForkDSPH/DualSPHysics/src/source/FunSphKernel.h
 /home/prashant/Documents/Git/ForkDSPH/DualSPHysics/src/source/FunSphKernelDef.h
 /home/prashant/Documents/Git/ForkDSPH/DualSPHysics/src/source/Functions.h
 /home/prashant/Documents/Git/ForkDSPH/DualSPHysics/src/source/FunctionsCuda.h
 /home/prashant/Documents/Git/ForkDSPH/DualSPHysics/src/source/FunctionsGeo3d.h
 /home/prashant/Documents/Git/ForkDSPH/DualSPHysics/src/source/JAppInfo.h
 /home/prashant/Documents/Git/ForkDSPH/DualSPHysics/src/source/JAppInfoDef.h
 /home/prashant/Documents/Git/ForkDSPH/DualSPHysics/src/source/JCellDivDataCpu.h
 /home/prashant/Documents/Git/ForkDSPH/DualSPHysics/src/source/JCellDivDataGpu.h
 /home/prashant/Documents/Git/ForkDSPH/DualSPHysics/src/source/JDataArrays.h
 /home/prashant/Documents/Git/ForkDSPH/DualSPHysics/src/source/JDsGaugeItem.h
 /home/prashant/Documents/Git/ForkDSPH/DualSPHysics/src/source/JDsGaugeSystem.cpp
 /home/prashant/Documents/Git/ForkDSPH/DualSPHysics/src/source/JDsGaugeSystem.h
 /home/prashant/Documents/Git/ForkDSPH/DualSPHysics/src/source/JLog2.h
 /home/prashant/Documents/Git/ForkDSPH/DualSPHysics/src/source/JNumexLibDef.h
 /home/prashant/Documents/Git/ForkDSPH/DualSPHysics/src/source/JObject.h
 /home/prashant/Documents/Git/ForkDSPH/DualSPHysics/src/source/JParticlesDef.h
 /home/prashant/Documents/Git/ForkDSPH/DualSPHysics/src/source/JPeriodicDef.h
 /home/prashant/Documents/Git/ForkDSPH/DualSPHysics/src/source/JSaveCsv2.h
 /home/prashant/Documents/Git/ForkDSPH/DualSPHysics/src/source/JSphMk.h
 /home/prashant/Documents/Git/ForkDSPH/DualSPHysics/src/source/JVtkLib.h
 /home/prashant/Documents/Git/ForkDSPH/DualSPHysics/src/source/JVtkLibDef.h
 /home/prashant/Documents/Git/ForkDSPH/DualSPHysics/src/source/JVtkLibUndef.h
 /home/prashant/Documents/Git/ForkDSPH/DualSPHysics/src/source/JXml.h
 /home/prashant/Documents/Git/ForkDSPH/DualSPHysics/src/source/OmpDefs.h
 /home/prashant/Documents/Git/ForkDSPH/DualSPHysics/src/source/TypesDef.h
 /home/prashant/Documents/Git/ForkDSPH/DualSPHysics/src/source/tinystr.h
 /home/prashant/Documents/Git/ForkDSPH/DualSPHysics/src/source/tinyxml.h
 /usr/local/cuda-10.1/include/builtin_types.h
 /usr/local/cuda-10.1/include/crt/host_defines.h
 /usr/local/cuda-10.1/include/cuda_device_runtime_api.h
 /usr/local/cuda-10.1/include/cuda_runtime_api.h
 /usr/local/cuda-10.1/include/device_types.h
 /usr/local/cuda-10.1/include/driver_types.h
 /usr/local/cuda-10.1/include/surface_types.h
 /usr/local/cuda-10.1/include/texture_types.h
 /usr/local/cuda-10.1/include/vector_types.h
CMakeFiles/DualSPHysics5.0CPU_linux64.dir/JDsInitialize.cpp.o
 /home/prashant/Documents/Git/ForkDSPH/DualSPHysics/src/source/Functions.h
 /home/prashant/Documents/Git/ForkDSPH/DualSPHysics/src/source/FunctionsGeo3d.h
 /home/prashant/Documents/Git/ForkDSPH/DualSPHysics/src/source/FunctionsMath.h
 /home/prashant/Documents/Git/ForkDSPH/DualSPHysics/src/source/JCaseProperties.h
 /home/prashant/Documents/Git/ForkDSPH/DualSPHysics/src/source/JDsInitialize.cpp
 /home/prashant/Documents/Git/ForkDSPH/DualSPHysics/src/source/JDsInitialize.h
 /home/prashant/Documents/Git/ForkDSPH/DualSPHysics/src/source/JNumexLibDef.h
 /home/prashant/Documents/Git/ForkDSPH/DualSPHysics/src/source/JObject.h
 /home/prashant/Documents/Git/ForkDSPH/DualSPHysics/src/source/JRangeFilter.h
 /home/prashant/Documents/Git/ForkDSPH/DualSPHysics/src/source/JXml.h
 /home/prashant/Documents/Git/ForkDSPH/DualSPHysics/src/source/TypesDef.h
 /home/prashant/Documents/Git/ForkDSPH/DualSPHysics/src/source/tinystr.h
 /home/prashant/Documents/Git/ForkDSPH/DualSPHysics/src/source/tinyxml.h
CMakeFiles/DualSPHysics5.0CPU_linux64.dir/JDsMooredFloatings.cpp.o
 /home/prashant/Documents/Git/ForkDSPH/DualSPHysics/src/source/DSphMoorDyn.h
 /home/prashant/Documents/Git/ForkDSPH/DualSPHysics/src/source/DSphMoorDynUndef.h
 /home/prashant/Documents/Git/ForkDSPH/DualSPHysics/src/source/DualSphDef.h
 /home/prashant/Documents/Git/ForkDSPH/DualSPHysics/src/source/FunSphKernelDef.h
 /home/prashant/Documents/Git/ForkDSPH/DualSPHysics/src/source/Functions.h
 /home/prashant/Documents/Git/ForkDSPH/DualSPHysics/src/source/FunctionsGeo3d.h
 /home/prashant/Documents/Git/ForkDSPH/DualSPHysics/src/source/JAppInfo.h
 /home/prashant/Documents/Git/ForkDSPH/DualSPHysics/src/source/JAppInfoDef.h
 /home/prashant/Documents/Git/ForkDSPH/DualSPHysics/src/source/JDataArrays.h
 /home/prashant/Documents/Git/ForkDSPH/DualSPHysics/src/source/JDsFtForcePoints.h
 /home/prashant/Documents/Git/ForkDSPH/DualSPHysics/src/source/JDsMooredFloatings.cpp
 /home/prashant/Documents/Git/ForkDSPH/DualSPHysics/src/source/JDsMooredFloatings.h
 /home/prashant/Documents/Git/ForkDSPH/DualSPHysics/src/source/JLog2.h
 /home/prashant/Documents/Git/ForkDSPH/DualSPHysics/src/source/JNumexLibDef.h
 /home/prashant/Documents/Git/ForkDSPH/DualSPHysics/src/source/JObject.h
 /home/prashant/Documents/Git/ForkDSPH/DualSPHysics/src/source/JParticlesDef.h
 /home/prashant/Documents/Git/ForkDSPH/DualSPHysics/src/source/JPeriodicDef.h
 /home/prashant/Documents/Git/ForkDSPH/DualSPHysics/src/source/JSaveCsv2.h
 /home/prashant/Documents/Git/ForkDSPH/DualSPHysics/src/source/JVtkLib.h
 /home/prashant/Documents/Git/ForkDSPH/DualSPHysics/src/source/JVtkLibDef.h
 /home/prashant/Documents/Git/ForkDSPH/DualSPHysics/src/source/JVtkLibUndef.h
 /home/prashant/Documents/Git/ForkDSPH/DualSPHysics/src/source/JXml.h
 /home/prashant/Documents/Git/ForkDSPH/DualSPHysics/src/source/OmpDefs.h
 /home/prashant/Documents/Git/ForkDSPH/DualSPHysics/src/source/TypesDef.h
 /home/prashant/Documents/Git/ForkDSPH/DualSPHysics/src/source/tinystr.h
 /home/prashant/Documents/Git/ForkDSPH/DualSPHysics/src/source/tinyxml.h
CMakeFiles/DualSPHysics5.0CPU_linux64.dir/JDsMotion.cpp.o
 /home/prashant/Documents/Git/ForkDSPH/DualSPHysics/src/source/DualSphDef.h
 /home/prashant/Documents/Git/ForkDSPH/DualSPHysics/src/source/FunSphKernelDef.h
 /home/prashant/Documents/Git/ForkDSPH/DualSPHysics/src/source/JCaseParts.h
 /home/prashant/Documents/Git/ForkDSPH/DualSPHysics/src/source/JCasePartsDef.h
 /home/prashant/Documents/Git/ForkDSPH/DualSPHysics/src/source/JDsMotion.cpp
 /home/prashant/Documents/Git/ForkDSPH/DualSPHysics/src/source/JDsMotion.h
 /home/prashant/Documents/Git/ForkDSPH/DualSPHysics/src/source/JMatrix4.h
 /home/prashant/Documents/Git/ForkDSPH/DualSPHysics/src/source/JMotion.h
 /home/prashant/Documents/Git/ForkDSPH/DualSPHysics/src/source/JNumexLibDef.h
 /home/prashant/Documents/Git/ForkDSPH/DualSPHysics/src/source/JObject.h
 /home/prashant/Documents/Git/ForkDSPH/DualSPHysics/src/source/JParticlesDef.h
 /home/prashant/Documents/Git/ForkDSPH/DualSPHysics/src/source/JPeriodicDef.h
 /home/prashant/Documents/Git/ForkDSPH/DualSPHysics/src/source/JVtkLibDef.h
 /home/prashant/Documents/Git/ForkDSPH/DualSPHysics/src/source/JXml.h
 /home/prashant/Documents/Git/ForkDSPH/DualSPHysics/src/source/OmpDefs.h
 /home/prashant/Documents/Git/ForkDSPH/DualSPHysics/src/source/TypesDef.h
 /home/prashant/Documents/Git/ForkDSPH/DualSPHysics/src/source/tinystr.h
 /home/prashant/Documents/Git/ForkDSPH/DualSPHysics/src/source/tinyxml.h
CMakeFiles/DualSPHysics5.0CPU_linux64.dir/JDsOutputTime.cpp.o
 /home/prashant/Documents/Git/ForkDSPH/DualSPHysics/src/source/Functions.h
 /home/prashant/Documents/Git/ForkDSPH/DualSPHysics/src/source/JDsOutputTime.cpp
 /home/prashant/Documents/Git/ForkDSPH/DualSPHysics/src/source/JDsOutputTime.h
 /home/prashant/Documents/Git/ForkDSPH/DualSPHysics/src/source/JLog2.h
 /home/prashant/Documents/Git/ForkDSPH/DualSPHysics/src/source/JNumexLibDef.h
 /home/prashant/Documents/Git/ForkDSPH/DualSPHysics/src/source/JObject.h
 /home/prashant/Documents/Git/ForkDSPH/DualSPHysics/src/source/JXml.h
 /home/prashant/Documents/Git/ForkDSPH/DualSPHysics/src/source/TypesDef.h
 /home/prashant/Documents/Git/ForkDSPH/DualSPHysics/src/source/tinystr.h
 /home/prashant/Documents/Git/ForkDSPH/DualSPHysics/src/source/tinyxml.h
CMakeFiles/DualSPHysics5.0CPU_linux64.dir/JDsPartsInit.cpp.o
 /home/prashant/Documents/Git/ForkDSPH/DualSPHysics/src/source/DualSphDef.h
 /home/prashant/Documents/Git/ForkDSPH/DualSPHysics/src/source/FunSphKernelDef.h
 /home/prashant/Documents/Git/ForkDSPH/DualSPHysics/src/source/Functions.h
 /home/prashant/Documents/Git/ForkDSPH/DualSPHysics/src/source/FunctionsMath.h
 /home/prashant/Documents/Git/ForkDSPH/DualSPHysics/src/source/JAppInfo.h
 /home/prashant/Documents/Git/ForkDSPH/DualSPHysics/src/source/JAppInfoDef.h
 /home/prashant/Documents/Git/ForkDSPH/DualSPHysics/src/source/JDsPartsInit.cpp
 /home/prashant/Documents/Git/ForkDSPH/DualSPHysics/src/source/JDsPartsInit.h
 /home/prashant/Documents/Git/ForkDSPH/DualSPHysics/src/source/JNumexLibDef.h
 /home/prashant/Documents/Git/ForkDSPH/DualSPHysics/src/source/JObject.h
 /home/prashant/Documents/Git/ForkDSPH/DualSPHysics/src/source/JParticlesDef.h
 /home/prashant/Documents/Git/ForkDSPH/DualSPHysics/src/source/JPeriodicDef.h
 /home/prashant/Documents/Git/ForkDSPH/DualSPHysics/src/source/JSphMk.h
 /home/prashant/Documents/Git/ForkDSPH/DualSPHysics/src/source/JVtkLibDef.h
 /home/prashant/Documents/Git/ForkDSPH/DualSPHysics/src/source/OmpDefs.h
 /home/prashant/Documents/Git/ForkDSPH/DualSPHysics/src/source/TypesDef.h
CMakeFiles/DualSPHysics5.0CPU_linux64.dir/JDsPartsOut.cpp.o
 /home/prashant/Documents/Git/ForkDSPH/DualSPHysics/src/source/DualSphDef.h
 /home/prashant/Documents/Git/ForkDSPH/DualSPHysics/src/source/FunSphKernelDef.h
 /home/prashant/Documents/Git/ForkDSPH/DualSPHysics/src/source/Functions.h
 /home/prashant/Documents/Git/ForkDSPH/DualSPHysics/src/source/JDsPartsOut.cpp
 /home/prashant/Documents/Git/ForkDSPH/DualSPHysics/src/source/JDsPartsOut.h
 /home/prashant/Documents/Git/ForkDSPH/DualSPHysics/src/source/JNumexLibDef.h
 /home/prashant/Documents/Git/ForkDSPH/DualSPHysics/src/source/JObject.h
 /home/prashant/Documents/Git/ForkDSPH/DualSPHysics/src/source/JParticlesDef.h
 /home/prashant/Documents/Git/ForkDSPH/DualSPHysics/src/source/JPeriodicDef.h
 /home/prashant/Documents/Git/ForkDSPH/DualSPHysics/src/source/JVtkLibDef.h
 /home/prashant/Documents/Git/ForkDSPH/DualSPHysics/src/source/OmpDefs.h
 /home/prashant/Documents/Git/ForkDSPH/DualSPHysics/src/source/TypesDef.h
CMakeFiles/DualSPHysics5.0CPU_linux64.dir/JDsPips.cpp.o
 /home/prashant/Documents/Git/ForkDSPH/DualSPHysics/src/source/DualSphDef.h
 /home/prashant/Documents/Git/ForkDSPH/DualSPHysics/src/source/FunSphKernelDef.h
 /home/prashant/Documents/Git/ForkDSPH/DualSPHysics/src/source/Functions.h
 /home/prashant/Documents/Git/ForkDSPH/DualSPHysics/src/source/JAppInfo.h
 /home/prashant/Documents/Git/ForkDSPH/DualSPHysics/src/source/JAppInfoDef.h
 /home/prashant/Documents/Git/ForkDSPH/DualSPHysics/src/source/JCellDivDataCpu.h
 /home/prashant/Documents/Git/ForkDSPH/DualSPHysics/src/source/JCellDivDataGpu.h
 /home/prashant/Documents/Git/ForkDSPH/DualSPHysics/src/source/JCellSearch_inline.h
 /home/prashant/Documents/Git/ForkDSPH/DualSPHysics/src/source/JDsPips.cpp
 /home/prashant/Documents/Git/ForkDSPH/DualSPHysics/src/source/JDsPips.h
 /home/prashant/Documents/Git/ForkDSPH/DualSPHysics/src/source/JDsPips_ker.h
 /home/prashant/Documents/Git/ForkDSPH/DualSPHysics/src/source/JLog2.h
 /home/prashant/Documents/Git/ForkDSPH/DualSPHysics/src/source/JNumexLibDef.h
 /home/prashant/Documents/Git/ForkDSPH/DualSPHysics/src/source/JObject.h
 /home/prashant/Documents/Git/ForkDSPH/DualSPHysics/src/source/JParticlesDef.h
 /home/prashant/Documents/Git/ForkDSPH/DualSPHysics/src/source/JPeriodicDef.h
 /home/prashant/Documents/Git/ForkDSPH/DualSPHysics/src/source/JSaveCsv2.h
 /home/prashant/Documents/Git/ForkDSPH/DualSPHysics/src/source/JVtkLibDef.h
 /home/prashant/Documents/Git/ForkDSPH/DualSPHysics/src/source/OmpDefs.h
 /home/prashant/Documents/Git/ForkDSPH/DualSPHysics/src/source/TypesDef.h
 /usr/local/cuda-10.1/include/builtin_types.h
 /usr/local/cuda-10.1/include/crt/host_defines.h
 /usr/local/cuda-10.1/include/cuda_device_runtime_api.h
 /usr/local/cuda-10.1/include/cuda_runtime_api.h
 /usr/local/cuda-10.1/include/device_types.h
 /usr/local/cuda-10.1/include/driver_types.h
 /usr/local/cuda-10.1/include/surface_types.h
 /usr/local/cuda-10.1/include/texture_types.h
 /usr/local/cuda-10.1/include/vector_types.h
CMakeFiles/DualSPHysics5.0CPU_linux64.dir/JDsSaveDt.cpp.o
 /home/prashant/Documents/Git/ForkDSPH/DualSPHysics/src/source/DualSphDef.h
 /home/prashant/Documents/Git/ForkDSPH/DualSPHysics/src/source/FunSphKernelDef.h
 /home/prashant/Documents/Git/ForkDSPH/DualSPHysics/src/source/Functions.h
 /home/prashant/Documents/Git/ForkDSPH/DualSPHysics/src/source/JAppInfo.h
 /home/prashant/Documents/Git/ForkDSPH/DualSPHysics/src/source/JAppInfoDef.h
 /home/prashant/Documents/Git/ForkDSPH/DualSPHysics/src/source/JDsSaveDt.cpp
 /home/prashant/Documents/Git/ForkDSPH/DualSPHysics/src/source/JDsSaveDt.h
 /home/prashant/Documents/Git/ForkDSPH/DualSPHysics/src/source/JLog2.h
 /home/prashant/Documents/Git/ForkDSPH/DualSPHysics/src/source/JNumexLibDef.h
 /home/prashant/Documents/Git/ForkDSPH/DualSPHysics/src/source/JObject.h
 /home/prashant/Documents/Git/ForkDSPH/DualSPHysics/src/source/JParticlesDef.h
 /home/prashant/Documents/Git/ForkDSPH/DualSPHysics/src/source/JPeriodicDef.h
 /home/prashant/Documents/Git/ForkDSPH/DualSPHysics/src/source/JSaveCsv2.h
 /home/prashant/Documents/Git/ForkDSPH/DualSPHysics/src/source/JVtkLibDef.h
 /home/prashant/Documents/Git/ForkDSPH/DualSPHysics/src/source/JXml.h
 /home/prashant/Documents/Git/ForkDSPH/DualSPHysics/src/source/OmpDefs.h
 /home/prashant/Documents/Git/ForkDSPH/DualSPHysics/src/source/TypesDef.h
 /home/prashant/Documents/Git/ForkDSPH/DualSPHysics/src/source/tinystr.h
 /home/prashant/Documents/Git/ForkDSPH/DualSPHysics/src/source/tinyxml.h
CMakeFiles/DualSPHysics5.0CPU_linux64.dir/JDsViscoInput.cpp.o
 /home/prashant/Documents/Git/ForkDSPH/DualSPHysics/src/source/DualSphDef.h
 /home/prashant/Documents/Git/ForkDSPH/DualSPHysics/src/source/FunSphKernelDef.h
 /home/prashant/Documents/Git/ForkDSPH/DualSPHysics/src/source/Functions.h
 /home/prashant/Documents/Git/ForkDSPH/DualSPHysics/src/source/JDsViscoInput.cpp
 /home/prashant/Documents/Git/ForkDSPH/DualSPHysics/src/source/JDsViscoInput.h
 /home/prashant/Documents/Git/ForkDSPH/DualSPHysics/src/source/JNumexLibDef.h
 /home/prashant/Documents/Git/ForkDSPH/DualSPHysics/src/source/JObject.h
 /home/prashant/Documents/Git/ForkDSPH/DualSPHysics/src/source/JParticlesDef.h
 /home/prashant/Documents/Git/ForkDSPH/DualSPHysics/src/source/JPeriodicDef.h
 /home/prashant/Documents/Git/ForkDSPH/DualSPHysics/src/source/JReadDatafile.h
 /home/prashant/Documents/Git/ForkDSPH/DualSPHysics/src/source/JTimer.h
 /home/prashant/Documents/Git/ForkDSPH/DualSPHysics/src/source/JVtkLibDef.h
 /home/prashant/Documents/Git/ForkDSPH/DualSPHysics/src/source/OmpDefs.h
 /home/prashant/Documents/Git/ForkDSPH/DualSPHysics/src/source/TypesDef.h
CMakeFiles/DualSPHysics5.0CPU_linux64.dir/JDsphConfig.cpp.o
 /home/prashant/Documents/Git/ForkDSPH/DualSPHysics/src/source/Functions.h
 /home/prashant/Documents/Git/ForkDSPH/DualSPHysics/src/source/JDsphConfig.cpp
 /home/prashant/Documents/Git/ForkDSPH/DualSPHysics/src/source/JDsphConfig.h
 /home/prashant/Documents/Git/ForkDSPH/DualSPHysics/src/source/JNumexLibDef.h
 /home/prashant/Documents/Git/ForkDSPH/DualSPHysics/src/source/JObject.h
 /home/prashant/Documents/Git/ForkDSPH/DualSPHysics/src/source/JXml.h
 /home/prashant/Documents/Git/ForkDSPH/DualSPHysics/src/source/TypesDef.h
 /home/prashant/Documents/Git/ForkDSPH/DualSPHysics/src/source/tinystr.h
 /home/prashant/Documents/Git/ForkDSPH/DualSPHysics/src/source/tinyxml.h
CMakeFiles/DualSPHysics5.0CPU_linux64.dir/JException.cpp.o
 /home/prashant/Documents/Git/ForkDSPH/DualSPHysics/src/source/Functions.h
 /home/prashant/Documents/Git/ForkDSPH/DualSPHysics/src/source/JException.cpp
 /home/prashant/Documents/Git/ForkDSPH/DualSPHysics/src/source/JException.h
 /home/prashant/Documents/Git/ForkDSPH/DualSPHysics/src/source/TypesDef.h
CMakeFiles/DualSPHysics5.0CPU_linux64.dir/JLinearValue.cpp.o
 /home/prashant/Documents/Git/ForkDSPH/DualSPHysics/src/source/Functions.h
 /home/prashant/Documents/Git/ForkDSPH/DualSPHysics/src/source/JLinearValue.cpp
 /home/prashant/Documents/Git/ForkDSPH/DualSPHysics/src/source/JLinearValue.h
 /home/prashant/Documents/Git/ForkDSPH/DualSPHysics/src/source/JLinearValueDef.h
 /home/prashant/Documents/Git/ForkDSPH/DualSPHysics/src/source/JNumexLibDef.h
 /home/prashant/Documents/Git/ForkDSPH/DualSPHysics/src/source/JObject.h
 /home/prashant/Documents/Git/ForkDSPH/DualSPHysics/src/source/JReadDatafile.h
 /home/prashant/Documents/Git/ForkDSPH/DualSPHysics/src/source/JXml.h
 /home/prashant/Documents/Git/ForkDSPH/DualSPHysics/src/source/TypesDef.h
 /home/prashant/Documents/Git/ForkDSPH/DualSPHysics/src/source/tinystr.h
 /home/prashant/Documents/Git/ForkDSPH/DualSPHysics/src/source/tinyxml.h
CMakeFiles/DualSPHysics5.0CPU_linux64.dir/JLog2.cpp.o
 /home/prashant/Documents/Git/ForkDSPH/DualSPHysics/src/source/Functions.h
 /home/prashant/Documents/Git/ForkDSPH/DualSPHysics/src/source/JLog2.cpp
 /home/prashant/Documents/Git/ForkDSPH/DualSPHysics/src/source/JLog2.h
 /home/prashant/Documents/Git/ForkDSPH/DualSPHysics/src/source/JObject.h
 /home/prashant/Documents/Git/ForkDSPH/DualSPHysics/src/source/TypesDef.h
CMakeFiles/DualSPHysics5.0CPU_linux64.dir/JMLPistonsGpu.cpp.o
 /home/prashant/Documents/Git/ForkDSPH/DualSPHysics/src/source/JMLPistonsGpu.cpp
 /home/prashant/Documents/Git/ForkDSPH/DualSPHysics/src/source/JMLPistonsGpu.h
 /home/prashant/Documents/Git/ForkDSPH/DualSPHysics/src/source/JObject.h
 /home/prashant/Documents/Git/ForkDSPH/DualSPHysics/src/source/TypesDef.h
 /usr/local/cuda-10.1/include/builtin_types.h
 /usr/local/cuda-10.1/include/crt/host_defines.h
 /usr/local/cuda-10.1/include/cuda_device_runtime_api.h
 /usr/local/cuda-10.1/include/cuda_runtime_api.h
 /usr/local/cuda-10.1/include/device_types.h
 /usr/local/cuda-10.1/include/driver_types.h
 /usr/local/cuda-10.1/include/surface_types.h
 /usr/local/cuda-10.1/include/texture_types.h
 /usr/local/cuda-10.1/include/vector_types.h
CMakeFiles/DualSPHysics5.0CPU_linux64.dir/JMeanValues.cpp.o
 /home/prashant/Documents/Git/ForkDSPH/DualSPHysics/src/source/JMeanValues.cpp
 /home/prashant/Documents/Git/ForkDSPH/DualSPHysics/src/source/JMeanValues.h
 /home/prashant/Documents/Git/ForkDSPH/DualSPHysics/src/source/JObject.h
 /home/prashant/Documents/Git/ForkDSPH/DualSPHysics/src/source/TypesDef.h
CMakeFiles/DualSPHysics5.0CPU_linux64.dir/JMotion.cpp.o
 /home/prashant/Documents/Git/ForkDSPH/DualSPHysics/src/source/Functions.h
 /home/prashant/Documents/Git/ForkDSPH/DualSPHysics/src/source/JMatrix4.h
 /home/prashant/Documents/Git/ForkDSPH/DualSPHysics/src/source/JMotion.cpp
 /home/prashant/Documents/Git/ForkDSPH/DualSPHysics/src/source/JMotion.h
 /home/prashant/Documents/Git/ForkDSPH/DualSPHysics/src/source/JMotionEvent.h
 /home/prashant/Documents/Git/ForkDSPH/DualSPHysics/src/source/JMotionList.h
 /home/prashant/Documents/Git/ForkDSPH/DualSPHysics/src/source/JMotionMov.h
 /home/prashant/Documents/Git/ForkDSPH/DualSPHysics/src/source/JMotionObj.h
 /home/prashant/Documents/Git/ForkDSPH/DualSPHysics/src/source/JMotionPos.h
 /home/prashant/Documents/Git/ForkDSPH/DualSPHysics/src/source/JNumexLibDef.h
 /home/prashant/Documents/Git/ForkDSPH/DualSPHysics/src/source/JObject.h
 /home/prashant/Documents/Git/ForkDSPH/DualSPHysics/src/source/JXml.h
 /home/prashant/Documents/Git/ForkDSPH/DualSPHysics/src/source/TypesDef.h
 /home/prashant/Documents/Git/ForkDSPH/DualSPHysics/src/source/tinystr.h
 /home/prashant/Documents/Git/ForkDSPH/DualSPHysics/src/source/tinyxml.h
CMakeFiles/DualSPHysics5.0CPU_linux64.dir/JMotionList.cpp.o
 /home/prashant/Documents/Git/ForkDSPH/DualSPHysics/src/source/JMatrix4.h
 /home/prashant/Documents/Git/ForkDSPH/DualSPHysics/src/source/JMotionList.cpp
 /home/prashant/Documents/Git/ForkDSPH/DualSPHysics/src/source/JMotionList.h
 /home/prashant/Documents/Git/ForkDSPH/DualSPHysics/src/source/JObject.h
 /home/prashant/Documents/Git/ForkDSPH/DualSPHysics/src/source/TypesDef.h
CMakeFiles/DualSPHysics5.0CPU_linux64.dir/JMotionMov.cpp.o
 /home/prashant/Documents/Git/ForkDSPH/DualSPHysics/src/source/JMotionMov.cpp
 /home/prashant/Documents/Git/ForkDSPH/DualSPHysics/src/source/JMotionMov.h
 /home/prashant/Documents/Git/ForkDSPH/DualSPHysics/src/source/JNumexLibDef.h
 /home/prashant/Documents/Git/ForkDSPH/DualSPHysics/src/source/JObject.h
 /home/prashant/Documents/Git/ForkDSPH/DualSPHysics/src/source/JReadDatafile.h
 /home/prashant/Documents/Git/ForkDSPH/DualSPHysics/src/source/JXml.h
 /home/prashant/Documents/Git/ForkDSPH/DualSPHysics/src/source/TypesDef.h
 /home/prashant/Documents/Git/ForkDSPH/DualSPHysics/src/source/tinystr.h
 /home/prashant/Documents/Git/ForkDSPH/DualSPHysics/src/source/tinyxml.h
CMakeFiles/DualSPHysics5.0CPU_linux64.dir/JMotionObj.cpp.o
 /home/prashant/Documents/Git/ForkDSPH/DualSPHysics/src/source/Functions.h
 /home/prashant/Documents/Git/ForkDSPH/DualSPHysics/src/source/JMatrix4.h
 /home/prashant/Documents/Git/ForkDSPH/DualSPHysics/src/source/JMotion.h
 /home/prashant/Documents/Git/ForkDSPH/DualSPHysics/src/source/JMotionEvent.h
 /home/prashant/Documents/Git/ForkDSPH/DualSPHysics/src/source/JMotionMov.h
 /home/prashant/Documents/Git/ForkDSPH/DualSPHysics/src/source/JMotionObj.cpp
 /home/prashant/Documents/Git/ForkDSPH/DualSPHysics/src/source/JMotionObj.h
 /home/prashant/Documents/Git/ForkDSPH/DualSPHysics/src/source/JMotionPos.h
 /home/prashant/Documents/Git/ForkDSPH/DualSPHysics/src/source/JNumexLibDef.h
 /home/prashant/Documents/Git/ForkDSPH/DualSPHysics/src/source/JObject.h
 /home/prashant/Documents/Git/ForkDSPH/DualSPHysics/src/source/JReadDatafile.h
 /home/prashant/Documents/Git/ForkDSPH/DualSPHysics/src/source/JXml.h
 /home/prashant/Documents/Git/ForkDSPH/DualSPHysics/src/source/TypesDef.h
 /home/prashant/Documents/Git/ForkDSPH/DualSPHysics/src/source/tinystr.h
 /home/prashant/Documents/Git/ForkDSPH/DualSPHysics/src/source/tinyxml.h
CMakeFiles/DualSPHysics5.0CPU_linux64.dir/JMotionPos.cpp.o
 /home/prashant/Documents/Git/ForkDSPH/DualSPHysics/src/source/JMatrix4.h
 /home/prashant/Documents/Git/ForkDSPH/DualSPHysics/src/source/JMotionPos.cpp
 /home/prashant/Documents/Git/ForkDSPH/DualSPHysics/src/source/JMotionPos.h
 /home/prashant/Documents/Git/ForkDSPH/DualSPHysics/src/source/TypesDef.h
CMakeFiles/DualSPHysics5.0CPU_linux64.dir/JNormalsMarrone.cpp.o
 /home/prashant/Documents/Git/ForkDSPH/DualSPHysics/src/source/Functions.h
 /home/prashant/Documents/Git/ForkDSPH/DualSPHysics/src/source/FunctionsGeo3d.h
 /home/prashant/Documents/Git/ForkDSPH/DualSPHysics/src/source/JBinaryData.h
 /home/prashant/Documents/Git/ForkDSPH/DualSPHysics/src/source/JDataArrays.h
 /home/prashant/Documents/Git/ForkDSPH/DualSPHysics/src/source/JNormalsMarrone.cpp
 /home/prashant/Documents/Git/ForkDSPH/DualSPHysics/src/source/JNormalsMarrone.h
 /home/prashant/Documents/Git/ForkDSPH/DualSPHysics/src/source/JObject.h
 /home/prashant/Documents/Git/ForkDSPH/DualSPHysics/src/source/JPartDataBi4.h
 /home/prashant/Documents/Git/ForkDSPH/DualSPHysics/src/source/JPartNormalData.h
 /home/prashant/Documents/Git/ForkDSPH/DualSPHysics/src/source/JPeriodicDef.h
 /home/prashant/Documents/Git/ForkDSPH/DualSPHysics/src/source/JVtkLib.h
 /home/prashant/Documents/Git/ForkDSPH/DualSPHysics/src/source/JVtkLibDef.h
 /home/prashant/Documents/Git/ForkDSPH/DualSPHysics/src/source/JVtkLibUndef.h
 /home/prashant/Documents/Git/ForkDSPH/DualSPHysics/src/source/TypesDef.h
CMakeFiles/DualSPHysics5.0CPU_linux64.dir/JObject.cpp.o
 /home/prashant/Documents/Git/ForkDSPH/DualSPHysics/src/source/JException.h
 /home/prashant/Documents/Git/ForkDSPH/DualSPHysics/src/source/JObject.cpp
 /home/prashant/Documents/Git/ForkDSPH/DualSPHysics/src/source/JObject.h
CMakeFiles/DualSPHysics5.0CPU_linux64.dir/JOutputCsv.cpp.o
 /home/prashant/Documents/Git/ForkDSPH/DualSPHysics/src/source/Functions.h
 /home/prashant/Documents/Git/ForkDSPH/DualSPHysics/src/source/JDataArrays.h
 /home/prashant/Documents/Git/ForkDSPH/DualSPHysics/src/source/JObject.h
 /home/prashant/Documents/Git/ForkDSPH/DualSPHysics/src/source/JOutputCsv.cpp
 /home/prashant/Documents/Git/ForkDSPH/DualSPHysics/src/source/JOutputCsv.h
 /home/prashant/Documents/Git/ForkDSPH/DualSPHysics/src/source/TypesDef.h
CMakeFiles/DualSPHysics5.0CPU_linux64.dir/JPartDataBi4.cpp.o
 /home/prashant/Documents/Git/ForkDSPH/DualSPHysics/src/source/Functions.h
 /home/prashant/Documents/Git/ForkDSPH/DualSPHysics/src/source/JBinaryData.h
 /home/prashant/Documents/Git/ForkDSPH/DualSPHysics/src/source/JObject.h
 /home/prashant/Documents/Git/ForkDSPH/DualSPHysics/src/source/JPartDataBi4.cpp
 /home/prashant/Documents/Git/ForkDSPH/DualSPHysics/src/source/JPartDataBi4.h
 /home/prashant/Documents/Git/ForkDSPH/DualSPHysics/src/source/JPartDataHead.h
 /home/prashant/Documents/Git/ForkDSPH/DualSPHysics/src/source/JParticlesDef.h
 /home/prashant/Documents/Git/ForkDSPH/DualSPHysics/src/source/JPeriodicDef.h
 /home/prashant/Documents/Git/ForkDSPH/DualSPHysics/src/source/TypesDef.h
CMakeFiles/DualSPHysics5.0CPU_linux64.dir/JPartDataHead.cpp.o
 /home/prashant/Documents/Git/ForkDSPH/DualSPHysics/src/source/Functions.h
 /home/prashant/Documents/Git/ForkDSPH/DualSPHysics/src/source/JBinaryData.h
 /home/prashant/Documents/Git/ForkDSPH/DualSPHysics/src/source/JObject.h
 /home/prashant/Documents/Git/ForkDSPH/DualSPHysics/src/source/JPartDataHead.cpp
 /home/prashant/Documents/Git/ForkDSPH/DualSPHysics/src/source/JPartDataHead.h
 /home/prashant/Documents/Git/ForkDSPH/DualSPHysics/src/source/JParticlesDef.h
 /home/prashant/Documents/Git/ForkDSPH/DualSPHysics/src/source/JPeriodicDef.h
 /home/prashant/Documents/Git/ForkDSPH/DualSPHysics/src/source/TypesDef.h
CMakeFiles/DualSPHysics5.0CPU_linux64.dir/JPartFloatBi4.cpp.o
 /home/prashant/Documents/Git/ForkDSPH/DualSPHysics/src/source/Functions.h
 /home/prashant/Documents/Git/ForkDSPH/DualSPHysics/src/source/JBinaryData.h
 /home/prashant/Documents/Git/ForkDSPH/DualSPHysics/src/source/JObject.h
 /home/prashant/Documents/Git/ForkDSPH/DualSPHysics/src/source/JPartFloatBi4.cpp
 /home/prashant/Documents/Git/ForkDSPH/DualSPHysics/src/source/JPartFloatBi4.h
 /home/prashant/Documents/Git/ForkDSPH/DualSPHysics/src/source/TypesDef.h
CMakeFiles/DualSPHysics5.0CPU_linux64.dir/JPartNormalData.cpp.o
 /home/prashant/Documents/Git/ForkDSPH/DualSPHysics/src/source/Functions.h
 /home/prashant/Documents/Git/ForkDSPH/DualSPHysics/src/source/JBinaryData.h
 /home/prashant/Documents/Git/ForkDSPH/DualSPHysics/src/source/JObject.h
 /home/prashant/Documents/Git/ForkDSPH/DualSPHysics/src/source/JPartNormalData.cpp
 /home/prashant/Documents/Git/ForkDSPH/DualSPHysics/src/source/JPartNormalData.h
 /home/prashant/Documents/Git/ForkDSPH/DualSPHysics/src/source/TypesDef.h
CMakeFiles/DualSPHysics5.0CPU_linux64.dir/JPartOutBi4Save.cpp.o
 /home/prashant/Documents/Git/ForkDSPH/DualSPHysics/src/source/Functions.h
 /home/prashant/Documents/Git/ForkDSPH/DualSPHysics/src/source/JBinaryData.h
 /home/prashant/Documents/Git/ForkDSPH/DualSPHysics/src/source/JObject.h
 /home/prashant/Documents/Git/ForkDSPH/DualSPHysics/src/source/JPartOutBi4Save.cpp
 /home/prashant/Documents/Git/ForkDSPH/DualSPHysics/src/source/JPartOutBi4Save.h
 /home/prashant/Documents/Git/ForkDSPH/DualSPHysics/src/source/TypesDef.h
CMakeFiles/DualSPHysics5.0CPU_linux64.dir/JPartsLoad4.cpp.o
 /home/prashant/Documents/Git/ForkDSPH/DualSPHysics/src/source/Functions.h
 /home/prashant/Documents/Git/ForkDSPH/DualSPHysics/src/source/JBinaryData.h
 /home/prashant/Documents/Git/ForkDSPH/DualSPHysics/src/source/JObject.h
 /home/prashant/Documents/Git/ForkDSPH/DualSPHysics/src/source/JPartDataBi4.h
 /home/prashant/Documents/Git/ForkDSPH/DualSPHysics/src/source/JPartsLoad4.cpp
 /home/prashant/Documents/Git/ForkDSPH/DualSPHysics/src/source/JPartsLoad4.h
 /home/prashant/Documents/Git/ForkDSPH/DualSPHysics/src/source/JPeriodicDef.h
 /home/prashant/Documents/Git/ForkDSPH/DualSPHysics/src/source/JRadixSort.h
 /home/prashant/Documents/Git/ForkDSPH/DualSPHysics/src/source/OmpDefs.h
 /home/prashant/Documents/Git/ForkDSPH/DualSPHysics/src/source/TypesDef.h
CMakeFiles/DualSPHysics5.0CPU_linux64.dir/JRadixSort.cpp.o
 /home/prashant/Documents/Git/ForkDSPH/DualSPHysics/src/source/JObject.h
 /home/prashant/Documents/Git/ForkDSPH/DualSPHysics/src/source/JRadixSort.cpp
 /home/prashant/Documents/Git/ForkDSPH/DualSPHysics/src/source/JRadixSort.h
 /home/prashant/Documents/Git/ForkDSPH/DualSPHysics/src/source/OmpDefs.h
 /home/prashant/Documents/Git/ForkDSPH/DualSPHysics/src/source/TypesDef.h
CMakeFiles/DualSPHysics5.0CPU_linux64.dir/JRangeFilter.cpp.o
 /home/prashant/Documents/Git/ForkDSPH/DualSPHysics/src/source/Functions.h
 /home/prashant/Documents/Git/ForkDSPH/DualSPHysics/src/source/JObject.h
 /home/prashant/Documents/Git/ForkDSPH/DualSPHysics/src/source/JRangeFilter.cpp
 /home/prashant/Documents/Git/ForkDSPH/DualSPHysics/src/source/JRangeFilter.h
 /home/prashant/Documents/Git/ForkDSPH/DualSPHysics/src/source/TypesDef.h
CMakeFiles/DualSPHysics5.0CPU_linux64.dir/JReadDatafile.cpp.o
 /home/prashant/Documents/Git/ForkDSPH/DualSPHysics/src/source/Functions.h
 /home/prashant/Documents/Git/ForkDSPH/DualSPHysics/src/source/JObject.h
 /home/prashant/Documents/Git/ForkDSPH/DualSPHysics/src/source/JReadDatafile.cpp
 /home/prashant/Documents/Git/ForkDSPH/DualSPHysics/src/source/JReadDatafile.h
 /home/prashant/Documents/Git/ForkDSPH/DualSPHysics/src/source/TypesDef.h
CMakeFiles/DualSPHysics5.0CPU_linux64.dir/JRelaxZonesGpu.cpp.o
 /home/prashant/Documents/Git/ForkDSPH/DualSPHysics/src/source/DualSphDef.h
 /home/prashant/Documents/Git/ForkDSPH/DualSPHysics/src/source/FunSphKernelDef.h
 /home/prashant/Documents/Git/ForkDSPH/DualSPHysics/src/source/JNumexLibDef.h
 /home/prashant/Documents/Git/ForkDSPH/DualSPHysics/src/source/JObject.h
 /home/prashant/Documents/Git/ForkDSPH/DualSPHysics/src/source/JParticlesDef.h
 /home/prashant/Documents/Git/ForkDSPH/DualSPHysics/src/source/JPeriodicDef.h
 /home/prashant/Documents/Git/ForkDSPH/DualSPHysics/src/source/JRelaxZone_ker.h
 /home/prashant/Documents/Git/ForkDSPH/DualSPHysics/src/source/JRelaxZonesGpu.cpp
 /home/prashant/Documents/Git/ForkDSPH/DualSPHysics/src/source/JRelaxZonesGpu.h
 /home/prashant/Documents/Git/ForkDSPH/DualSPHysics/src/source/JVtkLibDef.h
 /home/prashant/Documents/Git/ForkDSPH/DualSPHysics/src/source/OmpDefs.h
 /home/prashant/Documents/Git/ForkDSPH/DualSPHysics/src/source/TypesDef.h
 /usr/local/cuda-10.1/include/builtin_types.h
 /usr/local/cuda-10.1/include/crt/host_defines.h
 /usr/local/cuda-10.1/include/cuda_device_runtime_api.h
 /usr/local/cuda-10.1/include/cuda_runtime_api.h
 /usr/local/cuda-10.1/include/device_types.h
 /usr/local/cuda-10.1/include/driver_types.h
 /usr/local/cuda-10.1/include/surface_types.h
 /usr/local/cuda-10.1/include/texture_types.h
 /usr/local/cuda-10.1/include/vector_types.h
CMakeFiles/DualSPHysics5.0CPU_linux64.dir/JSaveCsv2.cpp.o
 /home/prashant/Documents/Git/ForkDSPH/DualSPHysics/src/source/Functions.h
 /home/prashant/Documents/Git/ForkDSPH/DualSPHysics/src/source/JObject.h
 /home/prashant/Documents/Git/ForkDSPH/DualSPHysics/src/source/JSaveCsv2.cpp
 /home/prashant/Documents/Git/ForkDSPH/DualSPHysics/src/source/JSaveCsv2.h
 /home/prashant/Documents/Git/ForkDSPH/DualSPHysics/src/source/TypesDef.h
CMakeFiles/DualSPHysics5.0CPU_linux64.dir/JSimpleNeigs.cpp.o
 /home/prashant/Documents/Git/ForkDSPH/DualSPHysics/src/source/Functions.h
 /home/prashant/Documents/Git/ForkDSPH/DualSPHysics/src/source/JObject.h
 /home/prashant/Documents/Git/ForkDSPH/DualSPHysics/src/source/JSimpleNeigs.cpp
 /home/prashant/Documents/Git/ForkDSPH/DualSPHysics/src/source/JSimpleNeigs.h
 /home/prashant/Documents/Git/ForkDSPH/DualSPHysics/src/source/TypesDef.h
CMakeFiles/DualSPHysics5.0CPU_linux64.dir/JSph.cpp.o
 /home/prashant/Documents/Git/ForkDSPH/DualSPHysics/src/source/DualSphDef.h
 /home/prashant/Documents/Git/ForkDSPH/DualSPHysics/src/source/FunSphKernel.h
 /home/prashant/Documents/Git/ForkDSPH/DualSPHysics/src/source/FunSphKernelDef.h
 /home/prashant/Documents/Git/ForkDSPH/DualSPHysics/src/source/FunSphKernelsCfg.h
 /home/prashant/Documents/Git/ForkDSPH/DualSPHysics/src/source/Functions.h
 /home/prashant/Documents/Git/ForkDSPH/DualSPHysics/src/source/FunctionsGeo3d.h
 /home/prashant/Documents/Git/ForkDSPH/DualSPHysics/src/source/JAppInfo.h
 /home/prashant/Documents/Git/ForkDSPH/DualSPHysics/src/source/JAppInfoDef.h
 /home/prashant/Documents/Git/ForkDSPH/DualSPHysics/src/source/JBinaryData.h
 /home/prashant/Documents/Git/ForkDSPH/DualSPHysics/src/source/JCaseCtes.h
 /home/prashant/Documents/Git/ForkDSPH/DualSPHysics/src/source/JCaseEParms.h
 /home/prashant/Documents/Git/ForkDSPH/DualSPHysics/src/source/JCaseParts.h
 /home/prashant/Documents/Git/ForkDSPH/DualSPHysics/src/source/JCasePartsDef.h
 /home/prashant/Documents/Git/ForkDSPH/DualSPHysics/src/source/JCaseUserVars.h
 /home/prashant/Documents/Git/ForkDSPH/DualSPHysics/src/source/JCellDivDataCpu.h
 /home/prashant/Documents/Git/ForkDSPH/DualSPHysics/src/source/JCellDivDataGpu.h
 /home/prashant/Documents/Git/ForkDSPH/DualSPHysics/src/source/JCfgRunBase.h
 /home/prashant/Documents/Git/ForkDSPH/DualSPHysics/src/source/JChronoObjects.h
 /home/prashant/Documents/Git/ForkDSPH/DualSPHysics/src/source/JChronoObjectsUndef.h
 /home/prashant/Documents/Git/ForkDSPH/DualSPHysics/src/source/JDataArrays.h
 /home/prashant/Documents/Git/ForkDSPH/DualSPHysics/src/source/JDsAccInput.h
 /home/prashant/Documents/Git/ForkDSPH/DualSPHysics/src/source/JDsDamping.h
 /home/prashant/Documents/Git/ForkDSPH/DualSPHysics/src/source/JDsFixedDt.h
 /home/prashant/Documents/Git/ForkDSPH/DualSPHysics/src/source/JDsFtForcePoints.h
 /home/prashant/Documents/Git/ForkDSPH/DualSPHysics/src/source/JDsGaugeItem.h
 /home/prashant/Documents/Git/ForkDSPH/DualSPHysics/src/source/JDsGaugeSystem.h
 /home/prashant/Documents/Git/ForkDSPH/DualSPHysics/src/source/JDsInitialize.h
 /home/prashant/Documents/Git/ForkDSPH/DualSPHysics/src/source/JDsMooredFloatings.h
 /home/prashant/Documents/Git/ForkDSPH/DualSPHysics/src/source/JDsMotion.h
 /home/prashant/Documents/Git/ForkDSPH/DualSPHysics/src/source/JDsOutputTime.h
 /home/prashant/Documents/Git/ForkDSPH/DualSPHysics/src/source/JDsPartsInit.h
 /home/prashant/Documents/Git/ForkDSPH/DualSPHysics/src/source/JDsPartsOut.h
 /home/prashant/Documents/Git/ForkDSPH/DualSPHysics/src/source/JDsPips.h
 /home/prashant/Documents/Git/ForkDSPH/DualSPHysics/src/source/JDsSaveDt.h
 /home/prashant/Documents/Git/ForkDSPH/DualSPHysics/src/source/JDsViscoInput.h
 /home/prashant/Documents/Git/ForkDSPH/DualSPHysics/src/source/JLinearValue.h
 /home/prashant/Documents/Git/ForkDSPH/DualSPHysics/src/source/JLinearValueDef.h
 /home/prashant/Documents/Git/ForkDSPH/DualSPHysics/src/source/JLog2.h
 /home/prashant/Documents/Git/ForkDSPH/DualSPHysics/src/source/JMLPistons.h
 /home/prashant/Documents/Git/ForkDSPH/DualSPHysics/src/source/JMatrix4.h
 /home/prashant/Documents/Git/ForkDSPH/DualSPHysics/src/source/JNormalsMarrone.h
 /home/prashant/Documents/Git/ForkDSPH/DualSPHysics/src/source/JNumexLib.h
 /home/prashant/Documents/Git/ForkDSPH/DualSPHysics/src/source/JNumexLibDef.h
 /home/prashant/Documents/Git/ForkDSPH/DualSPHysics/src/source/JNumexLibUndef.h
 /home/prashant/Documents/Git/ForkDSPH/DualSPHysics/src/source/JObject.h
 /home/prashant/Documents/Git/ForkDSPH/DualSPHysics/src/source/JOutputCsv.h
 /home/prashant/Documents/Git/ForkDSPH/DualSPHysics/src/source/JPartDataBi4.h
 /home/prashant/Documents/Git/ForkDSPH/DualSPHysics/src/source/JPartDataHead.h
 /home/prashant/Documents/Git/ForkDSPH/DualSPHysics/src/source/JPartFloatBi4.h
 /home/prashant/Documents/Git/ForkDSPH/DualSPHysics/src/source/JPartNormalData.h
 /home/prashant/Documents/Git/ForkDSPH/DualSPHysics/src/source/JPartOutBi4Save.h
 /home/prashant/Documents/Git/ForkDSPH/DualSPHysics/src/source/JParticlesDef.h
 /home/prashant/Documents/Git/ForkDSPH/DualSPHysics/src/source/JPartsLoad4.h
 /home/prashant/Documents/Git/ForkDSPH/DualSPHysics/src/source/JPeriodicDef.h
 /home/prashant/Documents/Git/ForkDSPH/DualSPHysics/src/source/JRelaxZones.h
 /home/prashant/Documents/Git/ForkDSPH/DualSPHysics/src/source/JSaveCsv2.h
 /home/prashant/Documents/Git/ForkDSPH/DualSPHysics/src/source/JSph.cpp
 /home/prashant/Documents/Git/ForkDSPH/DualSPHysics/src/source/JSph.h
 /home/prashant/Documents/Git/ForkDSPH/DualSPHysics/src/source/JSphBoundCorr.h
 /home/prashant/Documents/Git/ForkDSPH/DualSPHysics/src/source/JSphCfgRun.h
 /home/prashant/Documents/Git/ForkDSPH/DualSPHysics/src/source/JSphInOut.h
 /home/prashant/Documents/Git/ForkDSPH/DualSPHysics/src/source/JSphMk.h
 /home/prashant/Documents/Git/ForkDSPH/DualSPHysics/src/source/JSphShifting.h
 /home/prashant/Documents/Git/ForkDSPH/DualSPHysics/src/source/JSphTimersGpu.h
 /home/prashant/Documents/Git/ForkDSPH/DualSPHysics/src/source/JTimer.h
 /home/prashant/Documents/Git/ForkDSPH/DualSPHysics/src/source/JTimerCuda.h
 /home/prashant/Documents/Git/ForkDSPH/DualSPHysics/src/source/JVtkLib.h
 /home/prashant/Documents/Git/ForkDSPH/DualSPHysics/src/source/JVtkLibDef.h
 /home/prashant/Documents/Git/ForkDSPH/DualSPHysics/src/source/JVtkLibUndef.h
 /home/prashant/Documents/Git/ForkDSPH/DualSPHysics/src/source/JWaveGen.h
 /home/prashant/Documents/Git/ForkDSPH/DualSPHysics/src/source/JWaveGenUndef.h
 /home/prashant/Documents/Git/ForkDSPH/DualSPHysics/src/source/JXml.h
 /home/prashant/Documents/Git/ForkDSPH/DualSPHysics/src/source/OmpDefs.h
 /home/prashant/Documents/Git/ForkDSPH/DualSPHysics/src/source/TypesDef.h
 /home/prashant/Documents/Git/ForkDSPH/DualSPHysics/src/source/tinystr.h
 /home/prashant/Documents/Git/ForkDSPH/DualSPHysics/src/source/tinyxml.h
 /usr/local/cuda-10.1/include/builtin_types.h
 /usr/local/cuda-10.1/include/crt/host_defines.h
 /usr/local/cuda-10.1/include/cuda_device_runtime_api.h
 /usr/local/cuda-10.1/include/cuda_runtime_api.h
 /usr/local/cuda-10.1/include/device_types.h
 /usr/local/cuda-10.1/include/driver_types.h
 /usr/local/cuda-10.1/include/surface_types.h
 /usr/local/cuda-10.1/include/texture_types.h
 /usr/local/cuda-10.1/include/vector_types.h
CMakeFiles/DualSPHysics5.0CPU_linux64.dir/JSphBoundCorr.cpp.o
 /home/prashant/Documents/Git/ForkDSPH/DualSPHysics/src/source/DualSphDef.h
 /home/prashant/Documents/Git/ForkDSPH/DualSPHysics/src/source/FunSphKernelDef.h
 /home/prashant/Documents/Git/ForkDSPH/DualSPHysics/src/source/Functions.h
 /home/prashant/Documents/Git/ForkDSPH/DualSPHysics/src/source/FunctionsGeo3d.h
 /home/prashant/Documents/Git/ForkDSPH/DualSPHysics/src/source/JAppInfo.h
 /home/prashant/Documents/Git/ForkDSPH/DualSPHysics/src/source/JAppInfoDef.h
 /home/prashant/Documents/Git/ForkDSPH/DualSPHysics/src/source/JCellDivDataCpu.h
 /home/prashant/Documents/Git/ForkDSPH/DualSPHysics/src/source/JCfgRunBase.h
 /home/prashant/Documents/Git/ForkDSPH/DualSPHysics/src/source/JDataArrays.h
 /home/prashant/Documents/Git/ForkDSPH/DualSPHysics/src/source/JDsPartsInit.h
 /home/prashant/Documents/Git/ForkDSPH/DualSPHysics/src/source/JLinearValue.h
 /home/prashant/Documents/Git/ForkDSPH/DualSPHysics/src/source/JLinearValueDef.h
 /home/prashant/Documents/Git/ForkDSPH/DualSPHysics/src/source/JLog2.h
 /home/prashant/Documents/Git/ForkDSPH/DualSPHysics/src/source/JMatrix4.h
 /home/prashant/Documents/Git/ForkDSPH/DualSPHysics/src/source/JNumexLibDef.h
 /home/prashant/Documents/Git/ForkDSPH/DualSPHysics/src/source/JObject.h
 /home/prashant/Documents/Git/ForkDSPH/DualSPHysics/src/source/JParticlesDef.h
 /home/prashant/Documents/Git/ForkDSPH/DualSPHysics/src/source/JPeriodicDef.h
 /home/prashant/Documents/Git/ForkDSPH/DualSPHysics/src/source/JRangeFilter.h
 /home/prashant/Documents/Git/ForkDSPH/DualSPHysics/src/source/JSaveCsv2.h
 /home/prashant/Documents/Git/ForkDSPH/DualSPHysics/src/source/JSph.h
 /home/prashant/Documents/Git/ForkDSPH/DualSPHysics/src/source/JSphBoundCorr.cpp
 /home/prashant/Documents/Git/ForkDSPH/DualSPHysics/src/source/JSphBoundCorr.h
 /home/prashant/Documents/Git/ForkDSPH/DualSPHysics/src/source/JSphCfgRun.h
 /home/prashant/Documents/Git/ForkDSPH/DualSPHysics/src/source/JSphCpu.h
 /home/prashant/Documents/Git/ForkDSPH/DualSPHysics/src/source/JSphMk.h
 /home/prashant/Documents/Git/ForkDSPH/DualSPHysics/src/source/JSphTimersCpu.h
 /home/prashant/Documents/Git/ForkDSPH/DualSPHysics/src/source/JTimer.h
 /home/prashant/Documents/Git/ForkDSPH/DualSPHysics/src/source/JVtkLib.h
 /home/prashant/Documents/Git/ForkDSPH/DualSPHysics/src/source/JVtkLibDef.h
 /home/prashant/Documents/Git/ForkDSPH/DualSPHysics/src/source/JVtkLibUndef.h
 /home/prashant/Documents/Git/ForkDSPH/DualSPHysics/src/source/JXml.h
 /home/prashant/Documents/Git/ForkDSPH/DualSPHysics/src/source/OmpDefs.h
 /home/prashant/Documents/Git/ForkDSPH/DualSPHysics/src/source/TypesDef.h
 /home/prashant/Documents/Git/ForkDSPH/DualSPHysics/src/source/tinystr.h
 /home/prashant/Documents/Git/ForkDSPH/DualSPHysics/src/source/tinyxml.h
CMakeFiles/DualSPHysics5.0CPU_linux64.dir/JSphCfgRun.cpp.o
 /home/prashant/Documents/Git/ForkDSPH/DualSPHysics/src/source/DualSphDef.h
 /home/prashant/Documents/Git/ForkDSPH/DualSPHysics/src/source/FunSphKernelDef.h
 /home/prashant/Documents/Git/ForkDSPH/DualSPHysics/src/source/Functions.h
 /home/prashant/Documents/Git/ForkDSPH/DualSPHysics/src/source/JAppInfo.h
 /home/prashant/Documents/Git/ForkDSPH/DualSPHysics/src/source/JAppInfoDef.h
 /home/prashant/Documents/Git/ForkDSPH/DualSPHysics/src/source/JCfgRunBase.h
 /home/prashant/Documents/Git/ForkDSPH/DualSPHysics/src/source/JDsphConfig.h
 /home/prashant/Documents/Git/ForkDSPH/DualSPHysics/src/source/JNumexLibDef.h
 /home/prashant/Documents/Git/ForkDSPH/DualSPHysics/src/source/JObject.h
 /home/prashant/Documents/Git/ForkDSPH/DualSPHysics/src/source/JParticlesDef.h
 /home/prashant/Documents/Git/ForkDSPH/DualSPHysics/src/source/JPeriodicDef.h
 /home/prashant/Documents/Git/ForkDSPH/DualSPHysics/src/source/JSphCfgRun.cpp
 /home/prashant/Documents/Git/ForkDSPH/DualSPHysics/src/source/JSphCfgRun.h
 /home/prashant/Documents/Git/ForkDSPH/DualSPHysics/src/source/JVtkLibDef.h
 /home/prashant/Documents/Git/ForkDSPH/DualSPHysics/src/source/OmpDefs.h
 /home/prashant/Documents/Git/ForkDSPH/DualSPHysics/src/source/TypesDef.h
CMakeFiles/DualSPHysics5.0CPU_linux64.dir/JSphCpu.cpp.o
 /home/prashant/Documents/Git/ForkDSPH/DualSPHysics/src/source/DualSphDef.h
 /home/prashant/Documents/Git/ForkDSPH/DualSPHysics/src/source/FunSphEos.h
 /home/prashant/Documents/Git/ForkDSPH/DualSPHysics/src/source/FunSphKernel.h
 /home/prashant/Documents/Git/ForkDSPH/DualSPHysics/src/source/FunSphKernelDef.h
 /home/prashant/Documents/Git/ForkDSPH/DualSPHysics/src/source/Functions.h
 /home/prashant/Documents/Git/ForkDSPH/DualSPHysics/src/source/FunctionsMath.h
 /home/prashant/Documents/Git/ForkDSPH/DualSPHysics/src/source/JArraysCpu.h
 /home/prashant/Documents/Git/ForkDSPH/DualSPHysics/src/source/JBinaryData.h
 /home/prashant/Documents/Git/ForkDSPH/DualSPHysics/src/source/JCellDivCpu.h
 /home/prashant/Documents/Git/ForkDSPH/DualSPHysics/src/source/JCellDivDataCpu.h
 /home/prashant/Documents/Git/ForkDSPH/DualSPHysics/src/source/JCellDivDataGpu.h
 /home/prashant/Documents/Git/ForkDSPH/DualSPHysics/src/source/JCellSearch_inline.h
 /home/prashant/Documents/Git/ForkDSPH/DualSPHysics/src/source/JCfgRunBase.h
 /home/prashant/Documents/Git/ForkDSPH/DualSPHysics/src/source/JChronoObjects.h
 /home/prashant/Documents/Git/ForkDSPH/DualSPHysics/src/source/JChronoObjectsUndef.h
 /home/prashant/Documents/Git/ForkDSPH/DualSPHysics/src/source/JDsAccInput.h
 /home/prashant/Documents/Git/ForkDSPH/DualSPHysics/src/source/JDsDamping.h
 /home/prashant/Documents/Git/ForkDSPH/DualSPHysics/src/source/JDsFixedDt.h
 /home/prashant/Documents/Git/ForkDSPH/DualSPHysics/src/source/JDsFtForcePoints.h
 /home/prashant/Documents/Git/ForkDSPH/DualSPHysics/src/source/JDsGaugeItem.h
 /home/prashant/Documents/Git/ForkDSPH/DualSPHysics/src/source/JDsGaugeSystem.h
 /home/prashant/Documents/Git/ForkDSPH/DualSPHysics/src/source/JDsMotion.h
 /home/prashant/Documents/Git/ForkDSPH/DualSPHysics/src/source/JDsOutputTime.h
 /home/prashant/Documents/Git/ForkDSPH/DualSPHysics/src/source/JDsSaveDt.h
 /home/prashant/Documents/Git/ForkDSPH/DualSPHysics/src/source/JLog2.h
 /home/prashant/Documents/Git/ForkDSPH/DualSPHysics/src/source/JMLPistons.h
 /home/prashant/Documents/Git/ForkDSPH/DualSPHysics/src/source/JMatrix4.h
 /home/prashant/Documents/Git/ForkDSPH/DualSPHysics/src/source/JNumexLibDef.h
 /home/prashant/Documents/Git/ForkDSPH/DualSPHysics/src/source/JObject.h
 /home/prashant/Documents/Git/ForkDSPH/DualSPHysics/src/source/JPartFloatBi4.h
 /home/prashant/Documents/Git/ForkDSPH/DualSPHysics/src/source/JParticlesDef.h
 /home/prashant/Documents/Git/ForkDSPH/DualSPHysics/src/source/JPeriodicDef.h
 /home/prashant/Documents/Git/ForkDSPH/DualSPHysics/src/source/JRelaxZones.h
 /home/prashant/Documents/Git/ForkDSPH/DualSPHysics/src/source/JSaveCsv2.h
 /home/prashant/Documents/Git/ForkDSPH/DualSPHysics/src/source/JSph.h
 /home/prashant/Documents/Git/ForkDSPH/DualSPHysics/src/source/JSphBoundCorr.h
 /home/prashant/Documents/Git/ForkDSPH/DualSPHysics/src/source/JSphCfgRun.h
 /home/prashant/Documents/Git/ForkDSPH/DualSPHysics/src/source/JSphCpu.cpp
 /home/prashant/Documents/Git/ForkDSPH/DualSPHysics/src/source/JSphCpu.h
 /home/prashant/Documents/Git/ForkDSPH/DualSPHysics/src/source/JSphShifting.h
 /home/prashant/Documents/Git/ForkDSPH/DualSPHysics/src/source/JSphTimersCpu.h
 /home/prashant/Documents/Git/ForkDSPH/DualSPHysics/src/source/JTimer.h
 /home/prashant/Documents/Git/ForkDSPH/DualSPHysics/src/source/JVtkLibDef.h
 /home/prashant/Documents/Git/ForkDSPH/DualSPHysics/src/source/JWaveGen.h
 /home/prashant/Documents/Git/ForkDSPH/DualSPHysics/src/source/JWaveGenUndef.h
 /home/prashant/Documents/Git/ForkDSPH/DualSPHysics/src/source/JXml.h
 /home/prashant/Documents/Git/ForkDSPH/DualSPHysics/src/source/OmpDefs.h
 /home/prashant/Documents/Git/ForkDSPH/DualSPHysics/src/source/TypesDef.h
 /home/prashant/Documents/Git/ForkDSPH/DualSPHysics/src/source/tinystr.h
 /home/prashant/Documents/Git/ForkDSPH/DualSPHysics/src/source/tinyxml.h
 /usr/local/cuda-10.1/include/builtin_types.h
 /usr/local/cuda-10.1/include/crt/host_defines.h
 /usr/local/cuda-10.1/include/cuda_device_runtime_api.h
 /usr/local/cuda-10.1/include/cuda_runtime_api.h
 /usr/local/cuda-10.1/include/device_types.h
 /usr/local/cuda-10.1/include/driver_types.h
 /usr/local/cuda-10.1/include/surface_types.h
 /usr/local/cuda-10.1/include/texture_types.h
 /usr/local/cuda-10.1/include/vector_types.h
CMakeFiles/DualSPHysics5.0CPU_linux64.dir/JSphCpuSingle.cpp.o
 /home/prashant/Documents/Git/ForkDSPH/DualSPHysics/src/source/DualSphDef.h
 /home/prashant/Documents/Git/ForkDSPH/DualSPHysics/src/source/FunSphKernelDef.h
 /home/prashant/Documents/Git/ForkDSPH/DualSPHysics/src/source/Functions.h
 /home/prashant/Documents/Git/ForkDSPH/DualSPHysics/src/source/FunctionsMath.h
 /home/prashant/Documents/Git/ForkDSPH/DualSPHysics/src/source/JArraysCpu.h
 /home/prashant/Documents/Git/ForkDSPH/DualSPHysics/src/source/JCellDivCpu.h
 /home/prashant/Documents/Git/ForkDSPH/DualSPHysics/src/source/JCellDivCpuSingle.h
 /home/prashant/Documents/Git/ForkDSPH/DualSPHysics/src/source/JCellDivDataCpu.h
 /home/prashant/Documents/Git/ForkDSPH/DualSPHysics/src/source/JCellDivDataGpu.h
 /home/prashant/Documents/Git/ForkDSPH/DualSPHysics/src/source/JCfgRunBase.h
 /home/prashant/Documents/Git/ForkDSPH/DualSPHysics/src/source/JChronoObjects.h
 /home/prashant/Documents/Git/ForkDSPH/DualSPHysics/src/source/JChronoObjectsUndef.h
 /home/prashant/Documents/Git/ForkDSPH/DualSPHysics/src/source/JDataArrays.h
 /home/prashant/Documents/Git/ForkDSPH/DualSPHysics/src/source/JDsFtForcePoints.h
 /home/prashant/Documents/Git/ForkDSPH/DualSPHysics/src/source/JDsGaugeItem.h
 /home/prashant/Documents/Git/ForkDSPH/DualSPHysics/src/source/JDsGaugeSystem.h
 /home/prashant/Documents/Git/ForkDSPH/DualSPHysics/src/source/JDsMooredFloatings.h
 /home/prashant/Documents/Git/ForkDSPH/DualSPHysics/src/source/JDsMotion.h
 /home/prashant/Documents/Git/ForkDSPH/DualSPHysics/src/source/JDsOutputTime.h
 /home/prashant/Documents/Git/ForkDSPH/DualSPHysics/src/source/JDsPips.h
 /home/prashant/Documents/Git/ForkDSPH/DualSPHysics/src/source/JDsViscoInput.h
 /home/prashant/Documents/Git/ForkDSPH/DualSPHysics/src/source/JLinearValue.h
 /home/prashant/Documents/Git/ForkDSPH/DualSPHysics/src/source/JLinearValueDef.h
 /home/prashant/Documents/Git/ForkDSPH/DualSPHysics/src/source/JLog2.h
 /home/prashant/Documents/Git/ForkDSPH/DualSPHysics/src/source/JMLPistons.h
 /home/prashant/Documents/Git/ForkDSPH/DualSPHysics/src/source/JMatrix4.h
 /home/prashant/Documents/Git/ForkDSPH/DualSPHysics/src/source/JNumexLibDef.h
 /home/prashant/Documents/Git/ForkDSPH/DualSPHysics/src/source/JObject.h
 /home/prashant/Documents/Git/ForkDSPH/DualSPHysics/src/source/JParticlesDef.h
 /home/prashant/Documents/Git/ForkDSPH/DualSPHysics/src/source/JPartsLoad4.h
 /home/prashant/Documents/Git/ForkDSPH/DualSPHysics/src/source/JPeriodicDef.h
 /home/prashant/Documents/Git/ForkDSPH/DualSPHysics/src/source/JRelaxZones.h
 /home/prashant/Documents/Git/ForkDSPH/DualSPHysics/src/source/JSaveCsv2.h
 /home/prashant/Documents/Git/ForkDSPH/DualSPHysics/src/source/JSph.h
 /home/prashant/Documents/Git/ForkDSPH/DualSPHysics/src/source/JSphCfgRun.h
 /home/prashant/Documents/Git/ForkDSPH/DualSPHysics/src/source/JSphCpu.h
 /home/prashant/Documents/Git/ForkDSPH/DualSPHysics/src/source/JSphCpuSingle.cpp
 /home/prashant/Documents/Git/ForkDSPH/DualSPHysics/src/source/JSphCpuSingle.h
 /home/prashant/Documents/Git/ForkDSPH/DualSPHysics/src/source/JSphInOut.h
 /home/prashant/Documents/Git/ForkDSPH/DualSPHysics/src/source/JSphMk.h
 /home/prashant/Documents/Git/ForkDSPH/DualSPHysics/src/source/JSphShifting.h
 /home/prashant/Documents/Git/ForkDSPH/DualSPHysics/src/source/JSphTimersCpu.h
 /home/prashant/Documents/Git/ForkDSPH/DualSPHysics/src/source/JSphTimersGpu.h
 /home/prashant/Documents/Git/ForkDSPH/DualSPHysics/src/source/JTimeControl.h
 /home/prashant/Documents/Git/ForkDSPH/DualSPHysics/src/source/JTimer.h
 /home/prashant/Documents/Git/ForkDSPH/DualSPHysics/src/source/JTimerCuda.h
 /home/prashant/Documents/Git/ForkDSPH/DualSPHysics/src/source/JVtkLibDef.h
 /home/prashant/Documents/Git/ForkDSPH/DualSPHysics/src/source/JWaveGen.h
 /home/prashant/Documents/Git/ForkDSPH/DualSPHysics/src/source/JWaveGenUndef.h
 /home/prashant/Documents/Git/ForkDSPH/DualSPHysics/src/source/JXml.h
 /home/prashant/Documents/Git/ForkDSPH/DualSPHysics/src/source/OmpDefs.h
 /home/prashant/Documents/Git/ForkDSPH/DualSPHysics/src/source/TypesDef.h
 /home/prashant/Documents/Git/ForkDSPH/DualSPHysics/src/source/tinystr.h
 /home/prashant/Documents/Git/ForkDSPH/DualSPHysics/src/source/tinyxml.h
 /usr/local/cuda-10.1/include/builtin_types.h
 /usr/local/cuda-10.1/include/crt/host_defines.h
 /usr/local/cuda-10.1/include/cuda_device_runtime_api.h
 /usr/local/cuda-10.1/include/cuda_runtime_api.h
 /usr/local/cuda-10.1/include/device_types.h
 /usr/local/cuda-10.1/include/driver_types.h
 /usr/local/cuda-10.1/include/surface_types.h
 /usr/local/cuda-10.1/include/texture_types.h
 /usr/local/cuda-10.1/include/vector_types.h
CMakeFiles/DualSPHysics5.0CPU_linux64.dir/JSphCpuSingle_InOut.cpp.o
 /home/prashant/Documents/Git/ForkDSPH/DualSPHysics/src/source/DualSphDef.h
 /home/prashant/Documents/Git/ForkDSPH/DualSPHysics/src/source/FunSphKernelDef.h
 /home/prashant/Documents/Git/ForkDSPH/DualSPHysics/src/source/Functions.h
 /home/prashant/Documents/Git/ForkDSPH/DualSPHysics/src/source/FunctionsMath.h
 /home/prashant/Documents/Git/ForkDSPH/DualSPHysics/src/source/JAppInfo.h
 /home/prashant/Documents/Git/ForkDSPH/DualSPHysics/src/source/JAppInfoDef.h
 /home/prashant/Documents/Git/ForkDSPH/DualSPHysics/src/source/JArraysCpu.h
 /home/prashant/Documents/Git/ForkDSPH/DualSPHysics/src/source/JCellDivCpu.h
 /home/prashant/Documents/Git/ForkDSPH/DualSPHysics/src/source/JCellDivCpuSingle.h
 /home/prashant/Documents/Git/ForkDSPH/DualSPHysics/src/source/JCellDivDataCpu.h
 /home/prashant/Documents/Git/ForkDSPH/DualSPHysics/src/source/JCfgRunBase.h
 /home/prashant/Documents/Git/ForkDSPH/DualSPHysics/src/source/JDataArrays.h
 /home/prashant/Documents/Git/ForkDSPH/DualSPHysics/src/source/JDsPartsInit.h
 /home/prashant/Documents/Git/ForkDSPH/DualSPHysics/src/source/JLog2.h
 /home/prashant/Documents/Git/ForkDSPH/DualSPHysics/src/source/JMatrix4.h
 /home/prashant/Documents/Git/ForkDSPH/DualSPHysics/src/source/JNumexLibDef.h
 /home/prashant/Documents/Git/ForkDSPH/DualSPHysics/src/source/JObject.h
 /home/prashant/Documents/Git/ForkDSPH/DualSPHysics/src/source/JParticlesDef.h
 /home/prashant/Documents/Git/ForkDSPH/DualSPHysics/src/source/JPeriodicDef.h
 /home/prashant/Documents/Git/ForkDSPH/DualSPHysics/src/source/JSimpleNeigs.h
 /home/prashant/Documents/Git/ForkDSPH/DualSPHysics/src/source/JSph.h
 /home/prashant/Documents/Git/ForkDSPH/DualSPHysics/src/source/JSphBoundCorr.h
 /home/prashant/Documents/Git/ForkDSPH/DualSPHysics/src/source/JSphCfgRun.h
 /home/prashant/Documents/Git/ForkDSPH/DualSPHysics/src/source/JSphCpu.h
 /home/prashant/Documents/Git/ForkDSPH/DualSPHysics/src/source/JSphCpuSingle.h
 /home/prashant/Documents/Git/ForkDSPH/DualSPHysics/src/source/JSphCpuSingle_InOut.cpp
 /home/prashant/Documents/Git/ForkDSPH/DualSPHysics/src/source/JSphInOut.h
 /home/prashant/Documents/Git/ForkDSPH/DualSPHysics/src/source/JSphInOutPoints.h
 /home/prashant/Documents/Git/ForkDSPH/DualSPHysics/src/source/JSphMk.h
 /home/prashant/Documents/Git/ForkDSPH/DualSPHysics/src/source/JSphTimersCpu.h
 /home/prashant/Documents/Git/ForkDSPH/DualSPHysics/src/source/JSphTimersGpu.h
 /home/prashant/Documents/Git/ForkDSPH/DualSPHysics/src/source/JTimeControl.h
 /home/prashant/Documents/Git/ForkDSPH/DualSPHysics/src/source/JTimer.h
 /home/prashant/Documents/Git/ForkDSPH/DualSPHysics/src/source/JTimerCuda.h
 /home/prashant/Documents/Git/ForkDSPH/DualSPHysics/src/source/JVtkLib.h
 /home/prashant/Documents/Git/ForkDSPH/DualSPHysics/src/source/JVtkLibDef.h
 /home/prashant/Documents/Git/ForkDSPH/DualSPHysics/src/source/JVtkLibUndef.h
 /home/prashant/Documents/Git/ForkDSPH/DualSPHysics/src/source/OmpDefs.h
 /home/prashant/Documents/Git/ForkDSPH/DualSPHysics/src/source/TypesDef.h
 /usr/local/cuda-10.1/include/builtin_types.h
 /usr/local/cuda-10.1/include/crt/host_defines.h
 /usr/local/cuda-10.1/include/cuda_device_runtime_api.h
 /usr/local/cuda-10.1/include/cuda_runtime_api.h
 /usr/local/cuda-10.1/include/device_types.h
 /usr/local/cuda-10.1/include/driver_types.h
 /usr/local/cuda-10.1/include/surface_types.h
 /usr/local/cuda-10.1/include/texture_types.h
 /usr/local/cuda-10.1/include/vector_types.h
CMakeFiles/DualSPHysics5.0CPU_linux64.dir/JSphCpu_InOut.cpp.o
 /home/prashant/Documents/Git/ForkDSPH/DualSPHysics/src/source/DualSphDef.h
 /home/prashant/Documents/Git/ForkDSPH/DualSPHysics/src/source/FunSphKernel.h
 /home/prashant/Documents/Git/ForkDSPH/DualSPHysics/src/source/FunSphKernelDef.h
 /home/prashant/Documents/Git/ForkDSPH/DualSPHysics/src/source/Functions.h
 /home/prashant/Documents/Git/ForkDSPH/DualSPHysics/src/source/FunctionsGeo3d.h
 /home/prashant/Documents/Git/ForkDSPH/DualSPHysics/src/source/FunctionsMath.h
 /home/prashant/Documents/Git/ForkDSPH/DualSPHysics/src/source/JCellDivDataCpu.h
 /home/prashant/Documents/Git/ForkDSPH/DualSPHysics/src/source/JCellSearch_inline.h
[...]
 /home/prashant/Documents/Git/ForkDSPH/DualSPHysics/src/source/tinystr.h
 /home/prashant/Documents/Git/ForkDSPH/DualSPHysics/src/source/tinyxml.h
 /usr/local/cuda-10.1/include/builtin_types.h
 /usr/local/cuda-10.1/include/crt/host_defines.h
 /usr/local/cuda-10.1/include/cuda_device_runtime_api.h
 /usr/local/cuda-10.1/include/cuda_runtime_api.h
 /usr/local/cuda-10.1/include/device_types.h
 /usr/local/cuda-10.1/include/driver_types.h
 /usr/local/cuda-10.1/include/surface_types.h
 /usr/local/cuda-10.1/include/texture_types.h
 /usr/local/cuda-10.1/include/vector_types.h
CMakeFiles/DualSPHysics5.0CPU_linux64.dir/JSphInOutGridData.cpp.o
 /home/prashant/Documents/Git/ForkDSPH/DualSPHysics/src/source/DualSphDef.h
 /home/prashant/Documents/Git/ForkDSPH/DualSPHysics/src/source/FunSphKernelDef.h
 /home/prashant/Documents/Git/ForkDSPH/DualSPHysics/src/source/Functions.h
 /home/prashant/Documents/Git/ForkDSPH/DualSPHysics/src/source/FunctionsCuda.h
 /home/prashant/Documents/Git/ForkDSPH/DualSPHysics/src/source/FunctionsMath.h
 /home/prashant/Documents/Git/ForkDSPH/DualSPHysics/src/source/JAppInfo.h
 /home/prashant/Documents/Git/ForkDSPH/DualSPHysics/src/source/JAppInfoDef.h
 /home/prashant/Documents/Git/ForkDSPH/DualSPHysics/src/source/JCellDivDataGpu.h
 /home/prashant/Documents/Git/ForkDSPH/DualSPHysics/src/source/JDataArrays.h
 /home/prashant/Documents/Git/ForkDSPH/DualSPHysics/src/source/JLog2.h
 /home/prashant/Documents/Git/ForkDSPH/DualSPHysics/src/source/JNumexLibDef.h
 /home/prashant/Documents/Git/ForkDSPH/DualSPHysics/src/source/JObject.h
 /home/prashant/Documents/Git/ForkDSPH/DualSPHysics/src/source/JParticlesDef.h
 /home/prashant/Documents/Git/ForkDSPH/DualSPHysics/src/source/JPeriodicDef.h
 /home/prashant/Documents/Git/ForkDSPH/DualSPHysics/src/source/JReadDatafile.h
 /home/prashant/Documents/Git/ForkDSPH/DualSPHysics/src/source/JSaveCsv2.h
 /home/prashant/Documents/Git/ForkDSPH/DualSPHysics/src/source/JSphGpu_InOut_iker.h
 /home/prashant/Documents/Git/ForkDSPH/DualSPHysics/src/source/JSphInOutGridData.cpp
 /home/prashant/Documents/Git/ForkDSPH/DualSPHysics/src/source/JSphInOutGridData.h
 /home/prashant/Documents/Git/ForkDSPH/DualSPHysics/src/source/JVtkLib.h
 /home/prashant/Documents/Git/ForkDSPH/DualSPHysics/src/source/JVtkLibDef.h
 /home/prashant/Documents/Git/ForkDSPH/DualSPHysics/src/source/JVtkLibUndef.h
 /home/prashant/Documents/Git/ForkDSPH/DualSPHysics/src/source/OmpDefs.h
 /home/prashant/Documents/Git/ForkDSPH/DualSPHysics/src/source/TypesDef.h
 /usr/local/cuda-10.1/include/builtin_types.h
 /usr/local/cuda-10.1/include/crt/host_defines.h
 /usr/local/cuda-10.1/include/cuda_device_runtime_api.h
 /usr/local/cuda-10.1/include/cuda_runtime_api.h
 /usr/local/cuda-10.1/include/device_types.h
 /usr/local/cuda-10.1/include/driver_types.h
 /usr/local/cuda-10.1/include/surface_types.h
 /usr/local/cuda-10.1/include/texture_types.h
 /usr/local/cuda-10.1/include/vector_types.h
CMakeFiles/DualSPHysics5.0CPU_linux64.dir/JSphInOutPoints.cpp.o
 /home/prashant/Documents/Git/ForkDSPH/DualSPHysics/src/source/DualSphDef.h
 /home/prashant/Documents/Git/ForkDSPH/DualSPHysics/src/source/FunSphKernelDef.h
 /home/prashant/Documents/Git/ForkDSPH/DualSPHysics/src/source/Functions.h
 /home/prashant/Documents/Git/ForkDSPH/DualSPHysics/src/source/FunctionsGeo3d.h
 /home/prashant/Documents/Git/ForkDSPH/DualSPHysics/src/source/JAppInfo.h
 /home/prashant/Documents/Git/ForkDSPH/DualSPHysics/src/source/JAppInfoDef.h
 /home/prashant/Documents/Git/ForkDSPH/DualSPHysics/src/source/JDataArrays.h
 /home/prashant/Documents/Git/ForkDSPH/DualSPHysics/src/source/JDsPartsInit.h
 /home/prashant/Documents/Git/ForkDSPH/DualSPHysics/src/source/JLog2.h
 /home/prashant/Documents/Git/ForkDSPH/DualSPHysics/src/source/JMatrix4.h
 /home/prashant/Documents/Git/ForkDSPH/DualSPHysics/src/source/JNumexLibDef.h
 /home/prashant/Documents/Git/ForkDSPH/DualSPHysics/src/source/JObject.h
 /home/prashant/Documents/Git/ForkDSPH/DualSPHysics/src/source/JParticlesDef.h
 /home/prashant/Documents/Git/ForkDSPH/DualSPHysics/src/source/JPeriodicDef.h
 /home/prashant/Documents/Git/ForkDSPH/DualSPHysics/src/source/JSphInOutPoints.cpp
 /home/prashant/Documents/Git/ForkDSPH/DualSPHysics/src/source/JSphInOutPoints.h
 /home/prashant/Documents/Git/ForkDSPH/DualSPHysics/src/source/JSphMk.h
 /home/prashant/Documents/Git/ForkDSPH/DualSPHysics/src/source/JVtkLib.h
 /home/prashant/Documents/Git/ForkDSPH/DualSPHysics/src/source/JVtkLibDef.h
 /home/prashant/Documents/Git/ForkDSPH/DualSPHysics/src/source/JVtkLibUndef.h
 /home/prashant/Documents/Git/ForkDSPH/DualSPHysics/src/source/JXml.h
 /home/prashant/Documents/Git/ForkDSPH/DualSPHysics/src/source/OmpDefs.h
 /home/prashant/Documents/Git/ForkDSPH/DualSPHysics/src/source/TypesDef.h
 /home/prashant/Documents/Git/ForkDSPH/DualSPHysics/src/source/tinystr.h
 /home/prashant/Documents/Git/ForkDSPH/DualSPHysics/src/source/tinyxml.h
CMakeFiles/DualSPHysics5.0CPU_linux64.dir/JSphInOutZone.cpp.o
 /home/prashant/Documents/Git/ForkDSPH/DualSPHysics/src/source/DualSphDef.h
 /home/prashant/Documents/Git/ForkDSPH/DualSPHysics/src/source/FunSphKernelDef.h
 /home/prashant/Documents/Git/ForkDSPH/DualSPHysics/src/source/Functions.h
 /home/prashant/Documents/Git/ForkDSPH/DualSPHysics/src/source/FunctionsCuda.h
 /home/prashant/Documents/Git/ForkDSPH/DualSPHysics/src/source/FunctionsGeo3d.h
 /home/prashant/Documents/Git/ForkDSPH/DualSPHysics/src/source/FunctionsMath.h
 /home/prashant/Documents/Git/ForkDSPH/DualSPHysics/src/source/JAppInfo.h
 /home/prashant/Documents/Git/ForkDSPH/DualSPHysics/src/source/JAppInfoDef.h
 /home/prashant/Documents/Git/ForkDSPH/DualSPHysics/src/source/JCellDivDataCpu.h
 /home/prashant/Documents/Git/ForkDSPH/DualSPHysics/src/source/JCellDivDataGpu.h
 /home/prashant/Documents/Git/ForkDSPH/DualSPHysics/src/source/JDebugSphGpu.h
 /home/prashant/Documents/Git/ForkDSPH/DualSPHysics/src/source/JDsGaugeItem.h
 /home/prashant/Documents/Git/ForkDSPH/DualSPHysics/src/source/JDsGaugeSystem.h
 /home/prashant/Documents/Git/ForkDSPH/DualSPHysics/src/source/JLinearValue.h
 /home/prashant/Documents/Git/ForkDSPH/DualSPHysics/src/source/JLinearValueDef.h
 /home/prashant/Documents/Git/ForkDSPH/DualSPHysics/src/source/JLog2.h
 /home/prashant/Documents/Git/ForkDSPH/DualSPHysics/src/source/JMatrix4.h
 /home/prashant/Documents/Git/ForkDSPH/DualSPHysics/src/source/JNumexLibDef.h
 /home/prashant/Documents/Git/ForkDSPH/DualSPHysics/src/source/JObject.h
 /home/prashant/Documents/Git/ForkDSPH/DualSPHysics/src/source/JParticlesDef.h
 /home/prashant/Documents/Git/ForkDSPH/DualSPHysics/src/source/JPeriodicDef.h
 /home/prashant/Documents/Git/ForkDSPH/DualSPHysics/src/source/JSaveCsv2.h
 /home/prashant/Documents/Git/ForkDSPH/DualSPHysics/src/source/JSphInOutGridData.h
 /home/prashant/Documents/Git/ForkDSPH/DualSPHysics/src/source/JSphInOutPoints.h
 /home/prashant/Documents/Git/ForkDSPH/DualSPHysics/src/source/JSphInOutZone.cpp
 /home/prashant/Documents/Git/ForkDSPH/DualSPHysics/src/source/JSphInOutZone.h
 /home/prashant/Documents/Git/ForkDSPH/DualSPHysics/src/source/JSphTimersGpu.h
 /home/prashant/Documents/Git/ForkDSPH/DualSPHysics/src/source/JTimerCuda.h
 /home/prashant/Documents/Git/ForkDSPH/DualSPHysics/src/source/JVtkLibDef.h
 /home/prashant/Documents/Git/ForkDSPH/DualSPHysics/src/source/JXml.h
 /home/prashant/Documents/Git/ForkDSPH/DualSPHysics/src/source/OmpDefs.h
 /home/prashant/Documents/Git/ForkDSPH/DualSPHysics/src/source/TypesDef.h
 /home/prashant/Documents/Git/ForkDSPH/DualSPHysics/src/source/tinystr.h
 /home/prashant/Documents/Git/ForkDSPH/DualSPHysics/src/source/tinyxml.h
 /usr/local/cuda-10.1/include/builtin_types.h
 /usr/local/cuda-10.1/include/crt/host_defines.h
 /usr/local/cuda-10.1/include/cuda_device_runtime_api.h
 /usr/local/cuda-10.1/include/cuda_runtime_api.h
 /usr/local/cuda-10.1/include/device_types.h
 /usr/local/cuda-10.1/include/driver_types.h
 /usr/local/cuda-10.1/include/surface_types.h
 /usr/local/cuda-10.1/include/texture_types.h
 /usr/local/cuda-10.1/include/vector_types.h
CMakeFiles/DualSPHysics5.0CPU_linux64.dir/JSphMk.cpp.o
 /home/prashant/Documents/Git/ForkDSPH/DualSPHysics/src/source/DualSphDef.h
 /home/prashant/Documents/Git/ForkDSPH/DualSPHysics/src/source/FunSphKernelDef.h
 /home/prashant/Documents/Git/ForkDSPH/DualSPHysics/src/source/Functions.h
 /home/prashant/Documents/Git/ForkDSPH/DualSPHysics/src/source/JCaseParts.h
 /home/prashant/Documents/Git/ForkDSPH/DualSPHysics/src/source/JCasePartsDef.h
 /home/prashant/Documents/Git/ForkDSPH/DualSPHysics/src/source/JNumexLibDef.h
 /home/prashant/Documents/Git/ForkDSPH/DualSPHysics/src/source/JObject.h
 /home/prashant/Documents/Git/ForkDSPH/DualSPHysics/src/source/JPartDataHead.h
 /home/prashant/Documents/Git/ForkDSPH/DualSPHysics/src/source/JParticlesDef.h
 /home/prashant/Documents/Git/ForkDSPH/DualSPHysics/src/source/JPeriodicDef.h
 /home/prashant/Documents/Git/ForkDSPH/DualSPHysics/src/source/JSphMk.cpp
 /home/prashant/Documents/Git/ForkDSPH/DualSPHysics/src/source/JSphMk.h
 /home/prashant/Documents/Git/ForkDSPH/DualSPHysics/src/source/JVtkLibDef.h
 /home/prashant/Documents/Git/ForkDSPH/DualSPHysics/src/source/OmpDefs.h
 /home/prashant/Documents/Git/ForkDSPH/DualSPHysics/src/source/TypesDef.h
CMakeFiles/DualSPHysics5.0CPU_linux64.dir/JSphShifting.cpp.o
 /home/prashant/Documents/Git/ForkDSPH/DualSPHysics/src/source/DualSphDef.h
 /home/prashant/Documents/Git/ForkDSPH/DualSPHysics/src/source/FunSphKernelDef.h
 /home/prashant/Documents/Git/ForkDSPH/DualSPHysics/src/source/Functions.h
 /home/prashant/Documents/Git/ForkDSPH/DualSPHysics/src/source/FunctionsGeo3d.h
 /home/prashant/Documents/Git/ForkDSPH/DualSPHysics/src/source/JAppInfo.h
 /home/prashant/Documents/Git/ForkDSPH/DualSPHysics/src/source/JAppInfoDef.h
 /home/prashant/Documents/Git/ForkDSPH/DualSPHysics/src/source/JDataArrays.h
 /home/prashant/Documents/Git/ForkDSPH/DualSPHysics/src/source/JLog2.h
 /home/prashant/Documents/Git/ForkDSPH/DualSPHysics/src/source/JMatrix4.h
 /home/prashant/Documents/Git/ForkDSPH/DualSPHysics/src/source/JNumexLibDef.h
 /home/prashant/Documents/Git/ForkDSPH/DualSPHysics/src/source/JObject.h
 /home/prashant/Documents/Git/ForkDSPH/DualSPHysics/src/source/JParticlesDef.h
 /home/prashant/Documents/Git/ForkDSPH/DualSPHysics/src/source/JPeriodicDef.h
 /home/prashant/Documents/Git/ForkDSPH/DualSPHysics/src/source/JSphShifting.cpp
 /home/prashant/Documents/Git/ForkDSPH/DualSPHysics/src/source/JSphShifting.h
 /home/prashant/Documents/Git/ForkDSPH/DualSPHysics/src/source/JSphShifting_ker.h
 /home/prashant/Documents/Git/ForkDSPH/DualSPHysics/src/source/JVtkLib.h
 /home/prashant/Documents/Git/ForkDSPH/DualSPHysics/src/source/JVtkLibDef.h
 /home/prashant/Documents/Git/ForkDSPH/DualSPHysics/src/source/JVtkLibUndef.h
 /home/prashant/Documents/Git/ForkDSPH/DualSPHysics/src/source/JXml.h
 /home/prashant/Documents/Git/ForkDSPH/DualSPHysics/src/source/OmpDefs.h
 /home/prashant/Documents/Git/ForkDSPH/DualSPHysics/src/source/TypesDef.h
 /home/prashant/Documents/Git/ForkDSPH/DualSPHysics/src/source/tinystr.h
 /home/prashant/Documents/Git/ForkDSPH/DualSPHysics/src/source/tinyxml.h
 /usr/local/cuda-10.1/include/builtin_types.h
 /usr/local/cuda-10.1/include/crt/host_defines.h
 /usr/local/cuda-10.1/include/cuda_device_runtime_api.h
 /usr/local/cuda-10.1/include/cuda_runtime_api.h
 /usr/local/cuda-10.1/include/device_types.h
 /usr/local/cuda-10.1/include/driver_types.h
 /usr/local/cuda-10.1/include/surface_types.h
 /usr/local/cuda-10.1/include/texture_types.h
 /usr/local/cuda-10.1/include/vector_types.h
CMakeFiles/DualSPHysics5.0CPU_linux64.dir/JTimeControl.cpp.o
 /home/prashant/Documents/Git/ForkDSPH/DualSPHysics/src/source/Functions.h
 /home/prashant/Documents/Git/ForkDSPH/DualSPHysics/src/source/JObject.h
 /home/prashant/Documents/Git/ForkDSPH/DualSPHysics/src/source/JTimeControl.cpp
 /home/prashant/Documents/Git/ForkDSPH/DualSPHysics/src/source/JTimeControl.h
 /home/prashant/Documents/Git/ForkDSPH/DualSPHysics/src/source/JTimer.h
 /home/prashant/Documents/Git/ForkDSPH/DualSPHysics/src/source/TypesDef.h
CMakeFiles/DualSPHysics5.0CPU_linux64.dir/JWaveAwasZsurf.cpp.o
 /home/prashant/Documents/Git/ForkDSPH/DualSPHysics/src/source/DualSphDef.h
 /home/prashant/Documents/Git/ForkDSPH/DualSPHysics/src/source/FunSphKernelDef.h
 /home/prashant/Documents/Git/ForkDSPH/DualSPHysics/src/source/Functions.h
 /home/prashant/Documents/Git/ForkDSPH/DualSPHysics/src/source/JAppInfo.h
 /home/prashant/Documents/Git/ForkDSPH/DualSPHysics/src/source/JAppInfoDef.h
 /home/prashant/Documents/Git/ForkDSPH/DualSPHysics/src/source/JCellDivDataCpu.h
 /home/prashant/Documents/Git/ForkDSPH/DualSPHysics/src/source/JCellDivDataGpu.h
 /home/prashant/Documents/Git/ForkDSPH/DualSPHysics/src/source/JDsGaugeItem.h
 /home/prashant/Documents/Git/ForkDSPH/DualSPHysics/src/source/JDsGaugeSystem.h
 /home/prashant/Documents/Git/ForkDSPH/DualSPHysics/src/source/JLog2.h
 /home/prashant/Documents/Git/ForkDSPH/DualSPHysics/src/source/JMeanValues.h
 /home/prashant/Documents/Git/ForkDSPH/DualSPHysics/src/source/JNumexLibDef.h
 /home/prashant/Documents/Git/ForkDSPH/DualSPHysics/src/source/JObject.h
 /home/prashant/Documents/Git/ForkDSPH/DualSPHysics/src/source/JParticlesDef.h
 /home/prashant/Documents/Git/ForkDSPH/DualSPHysics/src/source/JPeriodicDef.h
 /home/prashant/Documents/Git/ForkDSPH/DualSPHysics/src/source/JSaveCsv2.h
 /home/prashant/Documents/Git/ForkDSPH/DualSPHysics/src/source/JSphMk.h
 /home/prashant/Documents/Git/ForkDSPH/DualSPHysics/src/source/JVtkLibDef.h
 /home/prashant/Documents/Git/ForkDSPH/DualSPHysics/src/source/JWaveAwasZsurf.cpp
 /home/prashant/Documents/Git/ForkDSPH/DualSPHysics/src/source/JWaveAwasZsurf.h
 /home/prashant/Documents/Git/ForkDSPH/DualSPHysics/src/source/JXml.h
 /home/prashant/Documents/Git/ForkDSPH/DualSPHysics/src/source/OmpDefs.h
 /home/prashant/Documents/Git/ForkDSPH/DualSPHysics/src/source/TypesDef.h
 /home/prashant/Documents/Git/ForkDSPH/DualSPHysics/src/source/tinystr.h
 /home/prashant/Documents/Git/ForkDSPH/DualSPHysics/src/source/tinyxml.h
 /usr/local/cuda-10.1/include/builtin_types.h
 /usr/local/cuda-10.1/include/crt/host_defines.h
 /usr/local/cuda-10.1/include/cuda_device_runtime_api.h
 /usr/local/cuda-10.1/include/cuda_runtime_api.h
 /usr/local/cuda-10.1/include/device_types.h
 /usr/local/cuda-10.1/include/driver_types.h
 /usr/local/cuda-10.1/include/surface_types.h
 /usr/local/cuda-10.1/include/texture_types.h
 /usr/local/cuda-10.1/include/vector_types.h
CMakeFiles/DualSPHysics5.0CPU_linux64.dir/JWaveSpectrumGpu.cpp.o
 /home/prashant/Documents/Git/ForkDSPH/DualSPHysics/src/source/JObject.h
 /home/prashant/Documents/Git/ForkDSPH/DualSPHysics/src/source/JWaveOrder2_ker.h
 /home/prashant/Documents/Git/ForkDSPH/DualSPHysics/src/source/JWaveSpectrumGpu.cpp
 /home/prashant/Documents/Git/ForkDSPH/DualSPHysics/src/source/JWaveSpectrumGpu.h
 /home/prashant/Documents/Git/ForkDSPH/DualSPHysics/src/source/TypesDef.h
 /usr/local/cuda-10.1/include/builtin_types.h
 /usr/local/cuda-10.1/include/crt/host_defines.h
 /usr/local/cuda-10.1/include/cuda_device_runtime_api.h
 /usr/local/cuda-10.1/include/cuda_runtime_api.h
 /usr/local/cuda-10.1/include/device_types.h
 /usr/local/cuda-10.1/include/driver_types.h
 /usr/local/cuda-10.1/include/surface_types.h
 /usr/local/cuda-10.1/include/texture_types.h
 /usr/local/cuda-10.1/include/vector_types.h
CMakeFiles/DualSPHysics5.0CPU_linux64.dir/JXml.cpp.o
 /home/prashant/Documents/Git/ForkDSPH/DualSPHysics/src/source/Functions.h
 /home/prashant/Documents/Git/ForkDSPH/DualSPHysics/src/source/JNumexLib.h
 /home/prashant/Documents/Git/ForkDSPH/DualSPHysics/src/source/JNumexLibDef.h
 /home/prashant/Documents/Git/ForkDSPH/DualSPHysics/src/source/JNumexLibUndef.h
 /home/prashant/Documents/Git/ForkDSPH/DualSPHysics/src/source/JObject.h
 /home/prashant/Documents/Git/ForkDSPH/DualSPHysics/src/source/JXml.cpp
 /home/prashant/Documents/Git/ForkDSPH/DualSPHysics/src/source/JXml.h
 /home/prashant/Documents/Git/ForkDSPH/DualSPHysics/src/source/TypesDef.h
 /home/prashant/Documents/Git/ForkDSPH/DualSPHysics/src/source/tinystr.h
 /home/prashant/Documents/Git/ForkDSPH/DualSPHysics/src/source/tinyxml.h
CMakeFiles/DualSPHysics5.0CPU_linux64.dir/main.cpp.o
 /home/prashant/Documents/Git/ForkDSPH/DualSPHysics/src/source/DualSphDef.h
 /home/prashant/Documents/Git/ForkDSPH/DualSPHysics/src/source/FunSphKernelDef.h
 /home/prashant/Documents/Git/ForkDSPH/DualSPHysics/src/source/Functions.h
 /home/prashant/Documents/Git/ForkDSPH/DualSPHysics/src/source/JAppInfo.h
 /home/prashant/Documents/Git/ForkDSPH/DualSPHysics/src/source/JAppInfoDef.h
 /home/prashant/Documents/Git/ForkDSPH/DualSPHysics/src/source/JCellDivDataCpu.h
 /home/prashant/Documents/Git/ForkDSPH/DualSPHysics/src/source/JCellDivDataGpu.h
 /home/prashant/Documents/Git/ForkDSPH/DualSPHysics/src/source/JCfgRunBase.h
 /home/prashant/Documents/Git/ForkDSPH/DualSPHysics/src/source/JException.h
 /home/prashant/Documents/Git/ForkDSPH/DualSPHysics/src/source/JLog2.h
 /home/prashant/Documents/Git/ForkDSPH/DualSPHysics/src/source/JNumexLibDef.h
 /home/prashant/Documents/Git/ForkDSPH/DualSPHysics/src/source/JObject.h
 /home/prashant/Documents/Git/ForkDSPH/DualSPHysics/src/source/JParticlesDef.h
 /home/prashant/Documents/Git/ForkDSPH/DualSPHysics/src/source/JPeriodicDef.h
 /home/prashant/Documents/Git/ForkDSPH/DualSPHysics/src/source/JSph.h
 /home/prashant/Documents/Git/ForkDSPH/DualSPHysics/src/source/JSphCfgRun.h
 /home/prashant/Documents/Git/ForkDSPH/DualSPHysics/src/source/JSphCpu.h
 /home/prashant/Documents/Git/ForkDSPH/DualSPHysics/src/source/JSphCpuSingle.h
 /home/prashant/Documents/Git/ForkDSPH/DualSPHysics/src/source/JSphGpu.h
 /home/prashant/Documents/Git/ForkDSPH/DualSPHysics/src/source/JSphGpuSingle.h
 /home/prashant/Documents/Git/ForkDSPH/DualSPHysics/src/source/JSphTimersCpu.h
 /home/prashant/Documents/Git/ForkDSPH/DualSPHysics/src/source/JSphTimersGpu.h
 /home/prashant/Documents/Git/ForkDSPH/DualSPHysics/src/source/JTimer.h
 /home/prashant/Documents/Git/ForkDSPH/DualSPHysics/src/source/JTimerCuda.h
 /home/prashant/Documents/Git/ForkDSPH/DualSPHysics/src/source/JVtkLibDef.h
 /home/prashant/Documents/Git/ForkDSPH/DualSPHysics/src/source/OmpDefs.h
 /home/prashant/Documents/Git/ForkDSPH/DualSPHysics/src/source/TypesDef.h
 /home/prashant/Documents/Git/ForkDSPH/DualSPHysics/src/source/main.cpp
 /usr/local/cuda-10.1/include/builtin_types.h
 /usr/local/cuda-10.1/include/crt/host_defines.h
 /usr/local/cuda-10.1/include/cuda_device_runtime_api.h
 /usr/local/cuda-10.1/include/cuda_runtime_api.h
 /usr/local/cuda-10.1/include/device_types.h
 /usr/local/cuda-10.1/include/driver_types.h
 /usr/local/cuda-10.1/include/surface_types.h
 /usr/local/cuda-10.1/include/texture_types.h
 /usr/local/cuda-10.1/include/vector_types.h
CMakeFiles/DualSPHysics5.0CPU_linux64.dir/randomc.cpp.o
 /home/prashant/Documents/Git/ForkDSPH/DualSPHysics/src/source/randomc.cpp
 /home/prashant/Documents/Git/ForkDSPH/DualSPHysics/src/source/randomc.h
CMakeFiles/DualSPHysics5.0CPU_linux64.dir/tinystr.cpp.o
 /home/prashant/Documents/Git/ForkDSPH/DualSPHysics/src/source/tinystr.cpp
 /home/prashant/Documents/Git/ForkDSPH/DualSPHysics/src/source/tinystr.h
CMakeFiles/DualSPHysics5.0CPU_linux64.dir/tinyxml.cpp.o
 /home/prashant/Documents/Git/ForkDSPH/DualSPHysics/src/source/tinystr.h
 /home/prashant/Documents/Git/ForkDSPH/DualSPHysics/src/source/tinyxml.cpp
 /home/prashant/Documents/Git/ForkDSPH/DualSPHysics/src/source/tinyxml.h
CMakeFiles/DualSPHysics5.0CPU_linux64.dir/tinyxmlerror.cpp.o
 /home/prashant/Documents/Git/ForkDSPH/DualSPHysics/src/source/tinystr.h
 /home/prashant/Documents/Git/ForkDSPH/DualSPHysics/src/source/tinyxml.h
 /home/prashant/Documents/Git/ForkDSPH/DualSPHysics/src/source/tinyxmlerror.cpp
CMakeFiles/DualSPHysics5.0CPU_linux64.dir/tinyxmlparser.cpp.o
 /home/prashant/Documents/Git/ForkDSPH/DualSPHysics/src/source/tinystr.h
 /home/prashant/Documents/Git/ForkDSPH/DualSPHysics/src/source/tinyxml.h
 /home/prashant/Documents/Git/ForkDSPH/DualSPHysics/src/source/tinyxmlparser.cpp
