# Hashes of file build rules.
0ed649fb326e5c4afbb677676d4e5cdc CMakeFiles/DualSPHysics5.0_linux64.dir/DualSPHysics5.0_linux64_generated_JCellDivGpuSingle_ker.cu.o
908adbb68226989a8011c8b1ffebe3de CMakeFiles/DualSPHysics5.0_linux64.dir/DualSPHysics5.0_linux64_generated_JCellDivGpu_ker.cu.o
68af5a25b4e8a4207bf0deebde8d43f0 CMakeFiles/DualSPHysics5.0_linux64.dir/DualSPHysics5.0_linux64_generated_JDsAccInput_ker.cu.o
cba83df708de2abe57afc4caf2b4d941 CMakeFiles/DualSPHysics5.0_linux64.dir/DualSPHysics5.0_linux64_generated_JDsGauge_ker.cu.o
fe6d8ed38b92d8d6e1e56c949edff443 CMakeFiles/DualSPHysics5.0_linux64.dir/DualSPHysics5.0_linux64_generated_JDsPips_ker.cu.o
6250db5ef65dae23fc3cdcc059d67529 CMakeFiles/DualSPHysics5.0_linux64.dir/DualSPHysics5.0_linux64_generated_JReduSum_ker.cu.o
94627c077deadf1dbc0b9c181132b75f CMakeFiles/DualSPHysics5.0_linux64.dir/DualSPHysics5.0_linux64_generated_JRelaxZone_ker.cu.o
36fac0ddc1c11de3426ca550d4976927 CMakeFiles/DualSPHysics5.0_linux64.dir/DualSPHysics5.0_linux64_generated_JSphGpuSimple_ker.cu.o
130fbb9e1f26262e715db10aae35272f CMakeFiles/DualSPHysics5.0_linux64.dir/DualSPHysics5.0_linux64_generated_JSphGpu_ker.cu.o
713ee37fcf8583071cca1c7c19226424 CMakeFiles/DualSPHysics5.0_linux64.dir/DualSPHysics5.0_linux64_generated_JSphShifting_ker.cu.o
332da57e6fa15de1797d256a31de669c CMakeFiles/DualSPHysics5.0_linux64.dir/DualSPHysics5.0_linux64_generated_JWaveOrder2_ker.cu.o
