# CMAKE generated file: DO NOT EDIT!
# Generated by "Unix Makefiles" Generator, CMake Version 3.16

# Delete rule output on recipe failure.
.DELETE_ON_ERROR:


#=============================================================================
# Special targets provided by cmake.

# Disable implicit rules so canonical targets will work.
.SUFFIXES:


# Remove some rules from gmake that .SUFFIXES does not remove.
SUFFIXES =

.SUFFIXES: .hpux_make_needs_suffix_list


# Suppress display of executed commands.
$(VERBOSE).SILENT:


# A target that is always out of date.
cmake_force:

.PHONY : cmake_force

#=============================================================================
# Set environment variables for the build.

# The shell in which to execute make rules.
SHELL = /bin/sh

# The CMake executable.
CMAKE_COMMAND = /usr/bin/cmake

# The command to remove a file.
RM = /usr/bin/cmake -E remove -f

# Escaping for special characters.
EQUALS = =

# The top-level source directory on which CMake was run.
CMAKE_SOURCE_DIR = /home/prashant/Documents/Git/ForkDSPH/DualSPHysics/src/source

# The top-level build directory on which CMake was run.
CMAKE_BINARY_DIR = /home/prashant/Documents/Git/ForkDSPH/DualSPHysics/src/build-source-Imported_Kit-Debug

# Include any dependencies generated for this target.
include CMakeFiles/DualSPHysics5.0_linux64.dir/depend.make

# Include the progress variables for this target.
include CMakeFiles/DualSPHysics5.0_linux64.dir/progress.make

# Include the compile flags for this target's objects.
include CMakeFiles/DualSPHysics5.0_linux64.dir/flags.make

CMakeFiles/DualSPHysics5.0_linux64.dir/DualSPHysics5.0_linux64_generated_JCellDivGpu_ker.cu.o: /home/prashant/Documents/Git/ForkDSPH/DualSPHysics/src/source/DualSphDef.h
CMakeFiles/DualSPHysics5.0_linux64.dir/DualSPHysics5.0_linux64_generated_JCellDivGpu_ker.cu.o: /home/prashant/Documents/Git/ForkDSPH/DualSPHysics/src/source/FunSphKernelDef.h
CMakeFiles/DualSPHysics5.0_linux64.dir/DualSPHysics5.0_linux64_generated_JCellDivGpu_ker.cu.o: /home/prashant/Documents/Git/ForkDSPH/DualSPHysics/src/source/Functions.h
CMakeFiles/DualSPHysics5.0_linux64.dir/DualSPHysics5.0_linux64_generated_JCellDivGpu_ker.cu.o: /home/prashant/Documents/Git/ForkDSPH/DualSPHysics/src/source/FunctionsBasic_iker.h
CMakeFiles/DualSPHysics5.0_linux64.dir/DualSPHysics5.0_linux64_generated_JCellDivGpu_ker.cu.o: /home/prashant/Documents/Git/ForkDSPH/DualSPHysics/src/source/FunctionsCuda.h
CMakeFiles/DualSPHysics5.0_linux64.dir/DualSPHysics5.0_linux64_generated_JCellDivGpu_ker.cu.o: /home/prashant/Documents/Git/ForkDSPH/DualSPHysics/src/source/JCellDivGpu_ker.cu
CMakeFiles/DualSPHysics5.0_linux64.dir/DualSPHysics5.0_linux64_generated_JCellDivGpu_ker.cu.o: /home/prashant/Documents/Git/ForkDSPH/DualSPHysics/src/source/JCellDivGpu_ker.h
CMakeFiles/DualSPHysics5.0_linux64.dir/DualSPHysics5.0_linux64_generated_JCellDivGpu_ker.cu.o: /home/prashant/Documents/Git/ForkDSPH/DualSPHysics/src/source/JLog2.h
CMakeFiles/DualSPHysics5.0_linux64.dir/DualSPHysics5.0_linux64_generated_JCellDivGpu_ker.cu.o: /home/prashant/Documents/Git/ForkDSPH/DualSPHysics/src/source/JNumexLibDef.h
CMakeFiles/DualSPHysics5.0_linux64.dir/DualSPHysics5.0_linux64_generated_JCellDivGpu_ker.cu.o: /home/prashant/Documents/Git/ForkDSPH/DualSPHysics/src/source/JObject.h
CMakeFiles/DualSPHysics5.0_linux64.dir/DualSPHysics5.0_linux64_generated_JCellDivGpu_ker.cu.o: /home/prashant/Documents/Git/ForkDSPH/DualSPHysics/src/source/JParticlesDef.h
CMakeFiles/DualSPHysics5.0_linux64.dir/DualSPHysics5.0_linux64_generated_JCellDivGpu_ker.cu.o: /home/prashant/Documents/Git/ForkDSPH/DualSPHysics/src/source/JPeriodicDef.h
CMakeFiles/DualSPHysics5.0_linux64.dir/DualSPHysics5.0_linux64_generated_JCellDivGpu_ker.cu.o: /home/prashant/Documents/Git/ForkDSPH/DualSPHysics/src/source/JVtkLibDef.h
CMakeFiles/DualSPHysics5.0_linux64.dir/DualSPHysics5.0_linux64_generated_JCellDivGpu_ker.cu.o: /home/prashant/Documents/Git/ForkDSPH/DualSPHysics/src/source/OmpDefs.h
CMakeFiles/DualSPHysics5.0_linux64.dir/DualSPHysics5.0_linux64_generated_JCellDivGpu_ker.cu.o: /home/prashant/Documents/Git/ForkDSPH/DualSPHysics/src/source/TypesDef.h
CMakeFiles/DualSPHysics5.0_linux64.dir/DualSPHysics5.0_linux64_generated_JCellDivGpu_ker.cu.o: /usr/include/alloca.h
CMakeFiles/DualSPHysics5.0_linux64.dir/DualSPHysics5.0_linux64_generated_JCellDivGpu_ker.cu.o: /usr/include/asm-generic/bitsperlong.h
CMakeFiles/DualSPHysics5.0_linux64.dir/DualSPHysics5.0_linux64_generated_JCellDivGpu_ker.cu.o: /usr/include/asm-generic/errno-base.h
CMakeFiles/DualSPHysics5.0_linux64.dir/DualSPHysics5.0_linux64_generated_JCellDivGpu_ker.cu.o: /usr/include/asm-generic/errno.h
CMakeFiles/DualSPHysics5.0_linux64.dir/DualSPHysics5.0_linux64_generated_JCellDivGpu_ker.cu.o: /usr/include/asm-generic/int-ll64.h
CMakeFiles/DualSPHysics5.0_linux64.dir/DualSPHysics5.0_linux64_generated_JCellDivGpu_ker.cu.o: /usr/include/asm-generic/posix_types.h
CMakeFiles/DualSPHysics5.0_linux64.dir/DualSPHysics5.0_linux64_generated_JCellDivGpu_ker.cu.o: /usr/include/asm-generic/types.h
CMakeFiles/DualSPHysics5.0_linux64.dir/DualSPHysics5.0_linux64_generated_JCellDivGpu_ker.cu.o: /usr/include/assert.h
CMakeFiles/DualSPHysics5.0_linux64.dir/DualSPHysics5.0_linux64_generated_JCellDivGpu_ker.cu.o: /usr/include/c++/7/algorithm
CMakeFiles/DualSPHysics5.0_linux64.dir/DualSPHysics5.0_linux64_generated_JCellDivGpu_ker.cu.o: /usr/include/c++/7/array
CMakeFiles/DualSPHysics5.0_linux64.dir/DualSPHysics5.0_linux64_generated_JCellDivGpu_ker.cu.o: /usr/include/c++/7/backward/auto_ptr.h
CMakeFiles/DualSPHysics5.0_linux64.dir/DualSPHysics5.0_linux64_generated_JCellDivGpu_ker.cu.o: /usr/include/c++/7/backward/binders.h
CMakeFiles/DualSPHysics5.0_linux64.dir/DualSPHysics5.0_linux64_generated_JCellDivGpu_ker.cu.o: /usr/include/c++/7/bits/algorithmfwd.h
CMakeFiles/DualSPHysics5.0_linux64.dir/DualSPHysics5.0_linux64_generated_JCellDivGpu_ker.cu.o: /usr/include/c++/7/bits/alloc_traits.h
CMakeFiles/DualSPHysics5.0_linux64.dir/DualSPHysics5.0_linux64_generated_JCellDivGpu_ker.cu.o: /usr/include/c++/7/bits/allocated_ptr.h
CMakeFiles/DualSPHysics5.0_linux64.dir/DualSPHysics5.0_linux64_generated_JCellDivGpu_ker.cu.o: /usr/include/c++/7/bits/allocator.h
CMakeFiles/DualSPHysics5.0_linux64.dir/DualSPHysics5.0_linux64_generated_JCellDivGpu_ker.cu.o: /usr/include/c++/7/bits/atomic_base.h
CMakeFiles/DualSPHysics5.0_linux64.dir/DualSPHysics5.0_linux64_generated_JCellDivGpu_ker.cu.o: /usr/include/c++/7/bits/atomic_lockfree_defines.h
CMakeFiles/DualSPHysics5.0_linux64.dir/DualSPHysics5.0_linux64_generated_JCellDivGpu_ker.cu.o: /usr/include/c++/7/bits/basic_ios.h
CMakeFiles/DualSPHysics5.0_linux64.dir/DualSPHysics5.0_linux64_generated_JCellDivGpu_ker.cu.o: /usr/include/c++/7/bits/basic_ios.tcc
CMakeFiles/DualSPHysics5.0_linux64.dir/DualSPHysics5.0_linux64_generated_JCellDivGpu_ker.cu.o: /usr/include/c++/7/bits/basic_string.h
CMakeFiles/DualSPHysics5.0_linux64.dir/DualSPHysics5.0_linux64_generated_JCellDivGpu_ker.cu.o: /usr/include/c++/7/bits/basic_string.tcc
CMakeFiles/DualSPHysics5.0_linux64.dir/DualSPHysics5.0_linux64_generated_JCellDivGpu_ker.cu.o: /usr/include/c++/7/bits/char_traits.h
CMakeFiles/DualSPHysics5.0_linux64.dir/DualSPHysics5.0_linux64_generated_JCellDivGpu_ker.cu.o: /usr/include/c++/7/bits/codecvt.h
CMakeFiles/DualSPHysics5.0_linux64.dir/DualSPHysics5.0_linux64_generated_JCellDivGpu_ker.cu.o: /usr/include/c++/7/bits/concept_check.h
CMakeFiles/DualSPHysics5.0_linux64.dir/DualSPHysics5.0_linux64_generated_JCellDivGpu_ker.cu.o: /usr/include/c++/7/bits/cpp_type_traits.h
CMakeFiles/DualSPHysics5.0_linux64.dir/DualSPHysics5.0_linux64_generated_JCellDivGpu_ker.cu.o: /usr/include/c++/7/bits/cxxabi_forced.h
CMakeFiles/DualSPHysics5.0_linux64.dir/DualSPHysics5.0_linux64_generated_JCellDivGpu_ker.cu.o: /usr/include/c++/7/bits/cxxabi_init_exception.h
CMakeFiles/DualSPHysics5.0_linux64.dir/DualSPHysics5.0_linux64_generated_JCellDivGpu_ker.cu.o: /usr/include/c++/7/bits/exception.h
CMakeFiles/DualSPHysics5.0_linux64.dir/DualSPHysics5.0_linux64_generated_JCellDivGpu_ker.cu.o: /usr/include/c++/7/bits/exception_defines.h
CMakeFiles/DualSPHysics5.0_linux64.dir/DualSPHysics5.0_linux64_generated_JCellDivGpu_ker.cu.o: /usr/include/c++/7/bits/exception_ptr.h
CMakeFiles/DualSPHysics5.0_linux64.dir/DualSPHysics5.0_linux64_generated_JCellDivGpu_ker.cu.o: /usr/include/c++/7/bits/fstream.tcc
CMakeFiles/DualSPHysics5.0_linux64.dir/DualSPHysics5.0_linux64_generated_JCellDivGpu_ker.cu.o: /usr/include/c++/7/bits/functexcept.h
CMakeFiles/DualSPHysics5.0_linux64.dir/DualSPHysics5.0_linux64_generated_JCellDivGpu_ker.cu.o: /usr/include/c++/7/bits/functional_hash.h
CMakeFiles/DualSPHysics5.0_linux64.dir/DualSPHysics5.0_linux64_generated_JCellDivGpu_ker.cu.o: /usr/include/c++/7/bits/hash_bytes.h
CMakeFiles/DualSPHysics5.0_linux64.dir/DualSPHysics5.0_linux64_generated_JCellDivGpu_ker.cu.o: /usr/include/c++/7/bits/invoke.h
CMakeFiles/DualSPHysics5.0_linux64.dir/DualSPHysics5.0_linux64_generated_JCellDivGpu_ker.cu.o: /usr/include/c++/7/bits/ios_base.h
CMakeFiles/DualSPHysics5.0_linux64.dir/DualSPHysics5.0_linux64_generated_JCellDivGpu_ker.cu.o: /usr/include/c++/7/bits/istream.tcc
CMakeFiles/DualSPHysics5.0_linux64.dir/DualSPHysics5.0_linux64_generated_JCellDivGpu_ker.cu.o: /usr/include/c++/7/bits/locale_classes.h
CMakeFiles/DualSPHysics5.0_linux64.dir/DualSPHysics5.0_linux64_generated_JCellDivGpu_ker.cu.o: /usr/include/c++/7/bits/locale_classes.tcc
CMakeFiles/DualSPHysics5.0_linux64.dir/DualSPHysics5.0_linux64_generated_JCellDivGpu_ker.cu.o: /usr/include/c++/7/bits/locale_facets.h
CMakeFiles/DualSPHysics5.0_linux64.dir/DualSPHysics5.0_linux64_generated_JCellDivGpu_ker.cu.o: /usr/include/c++/7/bits/locale_facets.tcc
CMakeFiles/DualSPHysics5.0_linux64.dir/DualSPHysics5.0_linux64_generated_JCellDivGpu_ker.cu.o: /usr/include/c++/7/bits/localefwd.h
CMakeFiles/DualSPHysics5.0_linux64.dir/DualSPHysics5.0_linux64_generated_JCellDivGpu_ker.cu.o: /usr/include/c++/7/bits/memoryfwd.h
CMakeFiles/DualSPHysics5.0_linux64.dir/DualSPHysics5.0_linux64_generated_JCellDivGpu_ker.cu.o: /usr/include/c++/7/bits/move.h
CMakeFiles/DualSPHysics5.0_linux64.dir/DualSPHysics5.0_linux64_generated_JCellDivGpu_ker.cu.o: /usr/include/c++/7/bits/nested_exception.h
CMakeFiles/DualSPHysics5.0_linux64.dir/DualSPHysics5.0_linux64_generated_JCellDivGpu_ker.cu.o: /usr/include/c++/7/bits/ostream.tcc
CMakeFiles/DualSPHysics5.0_linux64.dir/DualSPHysics5.0_linux64_generated_JCellDivGpu_ker.cu.o: /usr/include/c++/7/bits/ostream_insert.h
CMakeFiles/DualSPHysics5.0_linux64.dir/DualSPHysics5.0_linux64_generated_JCellDivGpu_ker.cu.o: /usr/include/c++/7/bits/postypes.h
CMakeFiles/DualSPHysics5.0_linux64.dir/DualSPHysics5.0_linux64_generated_JCellDivGpu_ker.cu.o: /usr/include/c++/7/bits/predefined_ops.h
CMakeFiles/DualSPHysics5.0_linux64.dir/DualSPHysics5.0_linux64_generated_JCellDivGpu_ker.cu.o: /usr/include/c++/7/bits/ptr_traits.h
CMakeFiles/DualSPHysics5.0_linux64.dir/DualSPHysics5.0_linux64_generated_JCellDivGpu_ker.cu.o: /usr/include/c++/7/bits/range_access.h
CMakeFiles/DualSPHysics5.0_linux64.dir/DualSPHysics5.0_linux64_generated_JCellDivGpu_ker.cu.o: /usr/include/c++/7/bits/refwrap.h
CMakeFiles/DualSPHysics5.0_linux64.dir/DualSPHysics5.0_linux64_generated_JCellDivGpu_ker.cu.o: /usr/include/c++/7/bits/shared_ptr.h
CMakeFiles/DualSPHysics5.0_linux64.dir/DualSPHysics5.0_linux64_generated_JCellDivGpu_ker.cu.o: /usr/include/c++/7/bits/shared_ptr_atomic.h
CMakeFiles/DualSPHysics5.0_linux64.dir/DualSPHysics5.0_linux64_generated_JCellDivGpu_ker.cu.o: /usr/include/c++/7/bits/shared_ptr_base.h
CMakeFiles/DualSPHysics5.0_linux64.dir/DualSPHysics5.0_linux64_generated_JCellDivGpu_ker.cu.o: /usr/include/c++/7/bits/sstream.tcc
CMakeFiles/DualSPHysics5.0_linux64.dir/DualSPHysics5.0_linux64_generated_JCellDivGpu_ker.cu.o: /usr/include/c++/7/bits/std_abs.h
CMakeFiles/DualSPHysics5.0_linux64.dir/DualSPHysics5.0_linux64_generated_JCellDivGpu_ker.cu.o: /usr/include/c++/7/bits/std_function.h
CMakeFiles/DualSPHysics5.0_linux64.dir/DualSPHysics5.0_linux64_generated_JCellDivGpu_ker.cu.o: /usr/include/c++/7/bits/stl_algo.h
CMakeFiles/DualSPHysics5.0_linux64.dir/DualSPHysics5.0_linux64_generated_JCellDivGpu_ker.cu.o: /usr/include/c++/7/bits/stl_algobase.h
CMakeFiles/DualSPHysics5.0_linux64.dir/DualSPHysics5.0_linux64_generated_JCellDivGpu_ker.cu.o: /usr/include/c++/7/bits/stl_bvector.h
CMakeFiles/DualSPHysics5.0_linux64.dir/DualSPHysics5.0_linux64_generated_JCellDivGpu_ker.cu.o: /usr/include/c++/7/bits/stl_construct.h
CMakeFiles/DualSPHysics5.0_linux64.dir/DualSPHysics5.0_linux64_generated_JCellDivGpu_ker.cu.o: /usr/include/c++/7/bits/stl_function.h
CMakeFiles/DualSPHysics5.0_linux64.dir/DualSPHysics5.0_linux64_generated_JCellDivGpu_ker.cu.o: /usr/include/c++/7/bits/stl_heap.h
CMakeFiles/DualSPHysics5.0_linux64.dir/DualSPHysics5.0_linux64_generated_JCellDivGpu_ker.cu.o: /usr/include/c++/7/bits/stl_iterator.h
CMakeFiles/DualSPHysics5.0_linux64.dir/DualSPHysics5.0_linux64_generated_JCellDivGpu_ker.cu.o: /usr/include/c++/7/bits/stl_iterator_base_funcs.h
CMakeFiles/DualSPHysics5.0_linux64.dir/DualSPHysics5.0_linux64_generated_JCellDivGpu_ker.cu.o: /usr/include/c++/7/bits/stl_iterator_base_types.h
CMakeFiles/DualSPHysics5.0_linux64.dir/DualSPHysics5.0_linux64_generated_JCellDivGpu_ker.cu.o: /usr/include/c++/7/bits/stl_pair.h
CMakeFiles/DualSPHysics5.0_linux64.dir/DualSPHysics5.0_linux64_generated_JCellDivGpu_ker.cu.o: /usr/include/c++/7/bits/stl_raw_storage_iter.h
CMakeFiles/DualSPHysics5.0_linux64.dir/DualSPHysics5.0_linux64_generated_JCellDivGpu_ker.cu.o: /usr/include/c++/7/bits/stl_relops.h
CMakeFiles/DualSPHysics5.0_linux64.dir/DualSPHysics5.0_linux64_generated_JCellDivGpu_ker.cu.o: /usr/include/c++/7/bits/stl_tempbuf.h
CMakeFiles/DualSPHysics5.0_linux64.dir/DualSPHysics5.0_linux64_generated_JCellDivGpu_ker.cu.o: /usr/include/c++/7/bits/stl_uninitialized.h
CMakeFiles/DualSPHysics5.0_linux64.dir/DualSPHysics5.0_linux64_generated_JCellDivGpu_ker.cu.o: /usr/include/c++/7/bits/stl_vector.h
CMakeFiles/DualSPHysics5.0_linux64.dir/DualSPHysics5.0_linux64_generated_JCellDivGpu_ker.cu.o: /usr/include/c++/7/bits/stream_iterator.h
CMakeFiles/DualSPHysics5.0_linux64.dir/DualSPHysics5.0_linux64_generated_JCellDivGpu_ker.cu.o: /usr/include/c++/7/bits/streambuf.tcc
CMakeFiles/DualSPHysics5.0_linux64.dir/DualSPHysics5.0_linux64_generated_JCellDivGpu_ker.cu.o: /usr/include/c++/7/bits/streambuf_iterator.h
CMakeFiles/DualSPHysics5.0_linux64.dir/DualSPHysics5.0_linux64_generated_JCellDivGpu_ker.cu.o: /usr/include/c++/7/bits/stringfwd.h
CMakeFiles/DualSPHysics5.0_linux64.dir/DualSPHysics5.0_linux64_generated_JCellDivGpu_ker.cu.o: /usr/include/c++/7/bits/uniform_int_dist.h
CMakeFiles/DualSPHysics5.0_linux64.dir/DualSPHysics5.0_linux64_generated_JCellDivGpu_ker.cu.o: /usr/include/c++/7/bits/unique_ptr.h
CMakeFiles/DualSPHysics5.0_linux64.dir/DualSPHysics5.0_linux64_generated_JCellDivGpu_ker.cu.o: /usr/include/c++/7/bits/uses_allocator.h
CMakeFiles/DualSPHysics5.0_linux64.dir/DualSPHysics5.0_linux64_generated_JCellDivGpu_ker.cu.o: /usr/include/c++/7/bits/vector.tcc
CMakeFiles/DualSPHysics5.0_linux64.dir/DualSPHysics5.0_linux64_generated_JCellDivGpu_ker.cu.o: /usr/include/c++/7/cassert
CMakeFiles/DualSPHysics5.0_linux64.dir/DualSPHysics5.0_linux64_generated_JCellDivGpu_ker.cu.o: /usr/include/c++/7/cctype
CMakeFiles/DualSPHysics5.0_linux64.dir/DualSPHysics5.0_linux64_generated_JCellDivGpu_ker.cu.o: /usr/include/c++/7/cerrno
CMakeFiles/DualSPHysics5.0_linux64.dir/DualSPHysics5.0_linux64_generated_JCellDivGpu_ker.cu.o: /usr/include/c++/7/cfloat
CMakeFiles/DualSPHysics5.0_linux64.dir/DualSPHysics5.0_linux64_generated_JCellDivGpu_ker.cu.o: /usr/include/c++/7/clocale
CMakeFiles/DualSPHysics5.0_linux64.dir/DualSPHysics5.0_linux64_generated_JCellDivGpu_ker.cu.o: /usr/include/c++/7/cmath
CMakeFiles/DualSPHysics5.0_linux64.dir/DualSPHysics5.0_linux64_generated_JCellDivGpu_ker.cu.o: /usr/include/c++/7/cstddef
CMakeFiles/DualSPHysics5.0_linux64.dir/DualSPHysics5.0_linux64_generated_JCellDivGpu_ker.cu.o: /usr/include/c++/7/cstdint
CMakeFiles/DualSPHysics5.0_linux64.dir/DualSPHysics5.0_linux64_generated_JCellDivGpu_ker.cu.o: /usr/include/c++/7/cstdio
CMakeFiles/DualSPHysics5.0_linux64.dir/DualSPHysics5.0_linux64_generated_JCellDivGpu_ker.cu.o: /usr/include/c++/7/cstdlib
CMakeFiles/DualSPHysics5.0_linux64.dir/DualSPHysics5.0_linux64_generated_JCellDivGpu_ker.cu.o: /usr/include/c++/7/cstring
CMakeFiles/DualSPHysics5.0_linux64.dir/DualSPHysics5.0_linux64_generated_JCellDivGpu_ker.cu.o: /usr/include/c++/7/ctime
CMakeFiles/DualSPHysics5.0_linux64.dir/DualSPHysics5.0_linux64_generated_JCellDivGpu_ker.cu.o: /usr/include/c++/7/cwchar
CMakeFiles/DualSPHysics5.0_linux64.dir/DualSPHysics5.0_linux64_generated_JCellDivGpu_ker.cu.o: /usr/include/c++/7/cwctype
CMakeFiles/DualSPHysics5.0_linux64.dir/DualSPHysics5.0_linux64_generated_JCellDivGpu_ker.cu.o: /usr/include/c++/7/debug/assertions.h
CMakeFiles/DualSPHysics5.0_linux64.dir/DualSPHysics5.0_linux64_generated_JCellDivGpu_ker.cu.o: /usr/include/c++/7/debug/debug.h
CMakeFiles/DualSPHysics5.0_linux64.dir/DualSPHysics5.0_linux64_generated_JCellDivGpu_ker.cu.o: /usr/include/c++/7/exception
CMakeFiles/DualSPHysics5.0_linux64.dir/DualSPHysics5.0_linux64_generated_JCellDivGpu_ker.cu.o: /usr/include/c++/7/ext/aligned_buffer.h
CMakeFiles/DualSPHysics5.0_linux64.dir/DualSPHysics5.0_linux64_generated_JCellDivGpu_ker.cu.o: /usr/include/c++/7/ext/alloc_traits.h
CMakeFiles/DualSPHysics5.0_linux64.dir/DualSPHysics5.0_linux64_generated_JCellDivGpu_ker.cu.o: /usr/include/c++/7/ext/atomicity.h
CMakeFiles/DualSPHysics5.0_linux64.dir/DualSPHysics5.0_linux64_generated_JCellDivGpu_ker.cu.o: /usr/include/c++/7/ext/concurrence.h
CMakeFiles/DualSPHysics5.0_linux64.dir/DualSPHysics5.0_linux64_generated_JCellDivGpu_ker.cu.o: /usr/include/c++/7/ext/new_allocator.h
CMakeFiles/DualSPHysics5.0_linux64.dir/DualSPHysics5.0_linux64_generated_JCellDivGpu_ker.cu.o: /usr/include/c++/7/ext/numeric_traits.h
CMakeFiles/DualSPHysics5.0_linux64.dir/DualSPHysics5.0_linux64_generated_JCellDivGpu_ker.cu.o: /usr/include/c++/7/ext/string_conversions.h
CMakeFiles/DualSPHysics5.0_linux64.dir/DualSPHysics5.0_linux64_generated_JCellDivGpu_ker.cu.o: /usr/include/c++/7/ext/type_traits.h
CMakeFiles/DualSPHysics5.0_linux64.dir/DualSPHysics5.0_linux64_generated_JCellDivGpu_ker.cu.o: /usr/include/c++/7/fstream
CMakeFiles/DualSPHysics5.0_linux64.dir/DualSPHysics5.0_linux64_generated_JCellDivGpu_ker.cu.o: /usr/include/c++/7/functional
CMakeFiles/DualSPHysics5.0_linux64.dir/DualSPHysics5.0_linux64_generated_JCellDivGpu_ker.cu.o: /usr/include/c++/7/initializer_list
CMakeFiles/DualSPHysics5.0_linux64.dir/DualSPHysics5.0_linux64_generated_JCellDivGpu_ker.cu.o: /usr/include/c++/7/ios
CMakeFiles/DualSPHysics5.0_linux64.dir/DualSPHysics5.0_linux64_generated_JCellDivGpu_ker.cu.o: /usr/include/c++/7/iosfwd
CMakeFiles/DualSPHysics5.0_linux64.dir/DualSPHysics5.0_linux64_generated_JCellDivGpu_ker.cu.o: /usr/include/c++/7/iostream
CMakeFiles/DualSPHysics5.0_linux64.dir/DualSPHysics5.0_linux64_generated_JCellDivGpu_ker.cu.o: /usr/include/c++/7/istream
CMakeFiles/DualSPHysics5.0_linux64.dir/DualSPHysics5.0_linux64_generated_JCellDivGpu_ker.cu.o: /usr/include/c++/7/iterator
CMakeFiles/DualSPHysics5.0_linux64.dir/DualSPHysics5.0_linux64_generated_JCellDivGpu_ker.cu.o: /usr/include/c++/7/limits
CMakeFiles/DualSPHysics5.0_linux64.dir/DualSPHysics5.0_linux64_generated_JCellDivGpu_ker.cu.o: /usr/include/c++/7/math.h
CMakeFiles/DualSPHysics5.0_linux64.dir/DualSPHysics5.0_linux64_generated_JCellDivGpu_ker.cu.o: /usr/include/c++/7/memory
CMakeFiles/DualSPHysics5.0_linux64.dir/DualSPHysics5.0_linux64_generated_JCellDivGpu_ker.cu.o: /usr/include/c++/7/new
CMakeFiles/DualSPHysics5.0_linux64.dir/DualSPHysics5.0_linux64_generated_JCellDivGpu_ker.cu.o: /usr/include/c++/7/ostream
CMakeFiles/DualSPHysics5.0_linux64.dir/DualSPHysics5.0_linux64_generated_JCellDivGpu_ker.cu.o: /usr/include/c++/7/sstream
CMakeFiles/DualSPHysics5.0_linux64.dir/DualSPHysics5.0_linux64_generated_JCellDivGpu_ker.cu.o: /usr/include/c++/7/stdexcept
CMakeFiles/DualSPHysics5.0_linux64.dir/DualSPHysics5.0_linux64_generated_JCellDivGpu_ker.cu.o: /usr/include/c++/7/stdlib.h
CMakeFiles/DualSPHysics5.0_linux64.dir/DualSPHysics5.0_linux64_generated_JCellDivGpu_ker.cu.o: /usr/include/c++/7/streambuf
CMakeFiles/DualSPHysics5.0_linux64.dir/DualSPHysics5.0_linux64_generated_JCellDivGpu_ker.cu.o: /usr/include/c++/7/string
CMakeFiles/DualSPHysics5.0_linux64.dir/DualSPHysics5.0_linux64_generated_JCellDivGpu_ker.cu.o: /usr/include/c++/7/system_error
CMakeFiles/DualSPHysics5.0_linux64.dir/DualSPHysics5.0_linux64_generated_JCellDivGpu_ker.cu.o: /usr/include/c++/7/tuple
CMakeFiles/DualSPHysics5.0_linux64.dir/DualSPHysics5.0_linux64_generated_JCellDivGpu_ker.cu.o: /usr/include/c++/7/type_traits
CMakeFiles/DualSPHysics5.0_linux64.dir/DualSPHysics5.0_linux64_generated_JCellDivGpu_ker.cu.o: /usr/include/c++/7/typeinfo
CMakeFiles/DualSPHysics5.0_linux64.dir/DualSPHysics5.0_linux64_generated_JCellDivGpu_ker.cu.o: /usr/include/c++/7/utility
CMakeFiles/DualSPHysics5.0_linux64.dir/DualSPHysics5.0_linux64_generated_JCellDivGpu_ker.cu.o: /usr/include/c++/7/vector
CMakeFiles/DualSPHysics5.0_linux64.dir/DualSPHysics5.0_linux64_generated_JCellDivGpu_ker.cu.o: /usr/include/ctype.h
CMakeFiles/DualSPHysics5.0_linux64.dir/DualSPHysics5.0_linux64_generated_JCellDivGpu_ker.cu.o: /usr/include/endian.h
CMakeFiles/DualSPHysics5.0_linux64.dir/DualSPHysics5.0_linux64_generated_JCellDivGpu_ker.cu.o: /usr/include/errno.h
CMakeFiles/DualSPHysics5.0_linux64.dir/DualSPHysics5.0_linux64_generated_JCellDivGpu_ker.cu.o: /usr/include/features.h
CMakeFiles/DualSPHysics5.0_linux64.dir/DualSPHysics5.0_linux64_generated_JCellDivGpu_ker.cu.o: /usr/include/limits.h
CMakeFiles/DualSPHysics5.0_linux64.dir/DualSPHysics5.0_linux64_generated_JCellDivGpu_ker.cu.o: /usr/include/linux/errno.h
CMakeFiles/DualSPHysics5.0_linux64.dir/DualSPHysics5.0_linux64_generated_JCellDivGpu_ker.cu.o: /usr/include/linux/limits.h
CMakeFiles/DualSPHysics5.0_linux64.dir/DualSPHysics5.0_linux64_generated_JCellDivGpu_ker.cu.o: /usr/include/linux/posix_types.h
CMakeFiles/DualSPHysics5.0_linux64.dir/DualSPHysics5.0_linux64_generated_JCellDivGpu_ker.cu.o: /usr/include/linux/stat.h
CMakeFiles/DualSPHysics5.0_linux64.dir/DualSPHysics5.0_linux64_generated_JCellDivGpu_ker.cu.o: /usr/include/linux/stddef.h
CMakeFiles/DualSPHysics5.0_linux64.dir/DualSPHysics5.0_linux64_generated_JCellDivGpu_ker.cu.o: /usr/include/linux/types.h
CMakeFiles/DualSPHysics5.0_linux64.dir/DualSPHysics5.0_linux64_generated_JCellDivGpu_ker.cu.o: /usr/include/locale.h
CMakeFiles/DualSPHysics5.0_linux64.dir/DualSPHysics5.0_linux64_generated_JCellDivGpu_ker.cu.o: /usr/include/math.h
CMakeFiles/DualSPHysics5.0_linux64.dir/DualSPHysics5.0_linux64_generated_JCellDivGpu_ker.cu.o: /usr/include/pthread.h
CMakeFiles/DualSPHysics5.0_linux64.dir/DualSPHysics5.0_linux64_generated_JCellDivGpu_ker.cu.o: /usr/include/sched.h
CMakeFiles/DualSPHysics5.0_linux64.dir/DualSPHysics5.0_linux64_generated_JCellDivGpu_ker.cu.o: /usr/include/stdc-predef.h
CMakeFiles/DualSPHysics5.0_linux64.dir/DualSPHysics5.0_linux64_generated_JCellDivGpu_ker.cu.o: /usr/include/stdint.h
CMakeFiles/DualSPHysics5.0_linux64.dir/DualSPHysics5.0_linux64_generated_JCellDivGpu_ker.cu.o: /usr/include/stdio.h
CMakeFiles/DualSPHysics5.0_linux64.dir/DualSPHysics5.0_linux64_generated_JCellDivGpu_ker.cu.o: /usr/include/stdlib.h
CMakeFiles/DualSPHysics5.0_linux64.dir/DualSPHysics5.0_linux64_generated_JCellDivGpu_ker.cu.o: /usr/include/string.h
CMakeFiles/DualSPHysics5.0_linux64.dir/DualSPHysics5.0_linux64_generated_JCellDivGpu_ker.cu.o: /usr/include/strings.h
CMakeFiles/DualSPHysics5.0_linux64.dir/DualSPHysics5.0_linux64_generated_JCellDivGpu_ker.cu.o: /usr/include/time.h
CMakeFiles/DualSPHysics5.0_linux64.dir/DualSPHysics5.0_linux64_generated_JCellDivGpu_ker.cu.o: /usr/include/wchar.h
CMakeFiles/DualSPHysics5.0_linux64.dir/DualSPHysics5.0_linux64_generated_JCellDivGpu_ker.cu.o: /usr/include/wctype.h
CMakeFiles/DualSPHysics5.0_linux64.dir/DualSPHysics5.0_linux64_generated_JCellDivGpu_ker.cu.o: /usr/include/x86_64-linux-gnu/asm/bitsperlong.h
CMakeFiles/DualSPHysics5.0_linux64.dir/DualSPHysics5.0_linux64_generated_JCellDivGpu_ker.cu.o: /usr/include/x86_64-linux-gnu/asm/errno.h
CMakeFiles/DualSPHysics5.0_linux64.dir/DualSPHysics5.0_linux64_generated_JCellDivGpu_ker.cu.o: /usr/include/x86_64-linux-gnu/asm/posix_types.h
CMakeFiles/DualSPHysics5.0_linux64.dir/DualSPHysics5.0_linux64_generated_JCellDivGpu_ker.cu.o: /usr/include/x86_64-linux-gnu/asm/posix_types_64.h
CMakeFiles/DualSPHysics5.0_linux64.dir/DualSPHysics5.0_linux64_generated_JCellDivGpu_ker.cu.o: /usr/include/x86_64-linux-gnu/asm/types.h
CMakeFiles/DualSPHysics5.0_linux64.dir/DualSPHysics5.0_linux64_generated_JCellDivGpu_ker.cu.o: /usr/include/x86_64-linux-gnu/bits/byteswap.h
CMakeFiles/DualSPHysics5.0_linux64.dir/DualSPHysics5.0_linux64_generated_JCellDivGpu_ker.cu.o: /usr/include/x86_64-linux-gnu/bits/cpu-set.h
CMakeFiles/DualSPHysics5.0_linux64.dir/DualSPHysics5.0_linux64_generated_JCellDivGpu_ker.cu.o: /usr/include/x86_64-linux-gnu/bits/endian.h
CMakeFiles/DualSPHysics5.0_linux64.dir/DualSPHysics5.0_linux64_generated_JCellDivGpu_ker.cu.o: /usr/include/x86_64-linux-gnu/bits/endianness.h
CMakeFiles/DualSPHysics5.0_linux64.dir/DualSPHysics5.0_linux64_generated_JCellDivGpu_ker.cu.o: /usr/include/x86_64-linux-gnu/bits/errno.h
CMakeFiles/DualSPHysics5.0_linux64.dir/DualSPHysics5.0_linux64_generated_JCellDivGpu_ker.cu.o: /usr/include/x86_64-linux-gnu/bits/floatn-common.h
CMakeFiles/DualSPHysics5.0_linux64.dir/DualSPHysics5.0_linux64_generated_JCellDivGpu_ker.cu.o: /usr/include/x86_64-linux-gnu/bits/floatn.h
CMakeFiles/DualSPHysics5.0_linux64.dir/DualSPHysics5.0_linux64_generated_JCellDivGpu_ker.cu.o: /usr/include/x86_64-linux-gnu/bits/flt-eval-method.h
CMakeFiles/DualSPHysics5.0_linux64.dir/DualSPHysics5.0_linux64_generated_JCellDivGpu_ker.cu.o: /usr/include/x86_64-linux-gnu/bits/fp-fast.h
CMakeFiles/DualSPHysics5.0_linux64.dir/DualSPHysics5.0_linux64_generated_JCellDivGpu_ker.cu.o: /usr/include/x86_64-linux-gnu/bits/fp-logb.h
CMakeFiles/DualSPHysics5.0_linux64.dir/DualSPHysics5.0_linux64_generated_JCellDivGpu_ker.cu.o: /usr/include/x86_64-linux-gnu/bits/iscanonical.h
CMakeFiles/DualSPHysics5.0_linux64.dir/DualSPHysics5.0_linux64_generated_JCellDivGpu_ker.cu.o: /usr/include/x86_64-linux-gnu/bits/libc-header-start.h
CMakeFiles/DualSPHysics5.0_linux64.dir/DualSPHysics5.0_linux64_generated_JCellDivGpu_ker.cu.o: /usr/include/x86_64-linux-gnu/bits/libm-simd-decl-stubs.h
CMakeFiles/DualSPHysics5.0_linux64.dir/DualSPHysics5.0_linux64_generated_JCellDivGpu_ker.cu.o: /usr/include/x86_64-linux-gnu/bits/local_lim.h
CMakeFiles/DualSPHysics5.0_linux64.dir/DualSPHysics5.0_linux64_generated_JCellDivGpu_ker.cu.o: /usr/include/x86_64-linux-gnu/bits/locale.h
CMakeFiles/DualSPHysics5.0_linux64.dir/DualSPHysics5.0_linux64_generated_JCellDivGpu_ker.cu.o: /usr/include/x86_64-linux-gnu/bits/long-double.h
CMakeFiles/DualSPHysics5.0_linux64.dir/DualSPHysics5.0_linux64_generated_JCellDivGpu_ker.cu.o: /usr/include/x86_64-linux-gnu/bits/math-vector.h
CMakeFiles/DualSPHysics5.0_linux64.dir/DualSPHysics5.0_linux64_generated_JCellDivGpu_ker.cu.o: /usr/include/x86_64-linux-gnu/bits/mathcalls-helper-functions.h
CMakeFiles/DualSPHysics5.0_linux64.dir/DualSPHysics5.0_linux64_generated_JCellDivGpu_ker.cu.o: /usr/include/x86_64-linux-gnu/bits/mathcalls-narrow.h
CMakeFiles/DualSPHysics5.0_linux64.dir/DualSPHysics5.0_linux64_generated_JCellDivGpu_ker.cu.o: /usr/include/x86_64-linux-gnu/bits/mathcalls.h
CMakeFiles/DualSPHysics5.0_linux64.dir/DualSPHysics5.0_linux64_generated_JCellDivGpu_ker.cu.o: /usr/include/x86_64-linux-gnu/bits/mathinline.h
CMakeFiles/DualSPHysics5.0_linux64.dir/DualSPHysics5.0_linux64_generated_JCellDivGpu_ker.cu.o: /usr/include/x86_64-linux-gnu/bits/posix1_lim.h
CMakeFiles/DualSPHysics5.0_linux64.dir/DualSPHysics5.0_linux64_generated_JCellDivGpu_ker.cu.o: /usr/include/x86_64-linux-gnu/bits/posix2_lim.h
CMakeFiles/DualSPHysics5.0_linux64.dir/DualSPHysics5.0_linux64_generated_JCellDivGpu_ker.cu.o: /usr/include/x86_64-linux-gnu/bits/pthreadtypes-arch.h
CMakeFiles/DualSPHysics5.0_linux64.dir/DualSPHysics5.0_linux64_generated_JCellDivGpu_ker.cu.o: /usr/include/x86_64-linux-gnu/bits/pthreadtypes.h
CMakeFiles/DualSPHysics5.0_linux64.dir/DualSPHysics5.0_linux64_generated_JCellDivGpu_ker.cu.o: /usr/include/x86_64-linux-gnu/bits/sched.h
CMakeFiles/DualSPHysics5.0_linux64.dir/DualSPHysics5.0_linux64_generated_JCellDivGpu_ker.cu.o: /usr/include/x86_64-linux-gnu/bits/select.h
CMakeFiles/DualSPHysics5.0_linux64.dir/DualSPHysics5.0_linux64_generated_JCellDivGpu_ker.cu.o: /usr/include/x86_64-linux-gnu/bits/select2.h
CMakeFiles/DualSPHysics5.0_linux64.dir/DualSPHysics5.0_linux64_generated_JCellDivGpu_ker.cu.o: /usr/include/x86_64-linux-gnu/bits/setjmp.h
CMakeFiles/DualSPHysics5.0_linux64.dir/DualSPHysics5.0_linux64_generated_JCellDivGpu_ker.cu.o: /usr/include/x86_64-linux-gnu/bits/stat.h
CMakeFiles/DualSPHysics5.0_linux64.dir/DualSPHysics5.0_linux64_generated_JCellDivGpu_ker.cu.o: /usr/include/x86_64-linux-gnu/bits/statx-generic.h
CMakeFiles/DualSPHysics5.0_linux64.dir/DualSPHysics5.0_linux64_generated_JCellDivGpu_ker.cu.o: /usr/include/x86_64-linux-gnu/bits/statx.h
CMakeFiles/DualSPHysics5.0_linux64.dir/DualSPHysics5.0_linux64_generated_JCellDivGpu_ker.cu.o: /usr/include/x86_64-linux-gnu/bits/stdint-intn.h
CMakeFiles/DualSPHysics5.0_linux64.dir/DualSPHysics5.0_linux64_generated_JCellDivGpu_ker.cu.o: /usr/include/x86_64-linux-gnu/bits/stdint-uintn.h
CMakeFiles/DualSPHysics5.0_linux64.dir/DualSPHysics5.0_linux64_generated_JCellDivGpu_ker.cu.o: /usr/include/x86_64-linux-gnu/bits/stdio.h
CMakeFiles/DualSPHysics5.0_linux64.dir/DualSPHysics5.0_linux64_generated_JCellDivGpu_ker.cu.o: /usr/include/x86_64-linux-gnu/bits/stdio2.h
CMakeFiles/DualSPHysics5.0_linux64.dir/DualSPHysics5.0_linux64_generated_JCellDivGpu_ker.cu.o: /usr/include/x86_64-linux-gnu/bits/stdio_lim.h
CMakeFiles/DualSPHysics5.0_linux64.dir/DualSPHysics5.0_linux64_generated_JCellDivGpu_ker.cu.o: /usr/include/x86_64-linux-gnu/bits/stdlib-bsearch.h
CMakeFiles/DualSPHysics5.0_linux64.dir/DualSPHysics5.0_linux64_generated_JCellDivGpu_ker.cu.o: /usr/include/x86_64-linux-gnu/bits/stdlib-float.h
CMakeFiles/DualSPHysics5.0_linux64.dir/DualSPHysics5.0_linux64_generated_JCellDivGpu_ker.cu.o: /usr/include/x86_64-linux-gnu/bits/stdlib.h
CMakeFiles/DualSPHysics5.0_linux64.dir/DualSPHysics5.0_linux64_generated_JCellDivGpu_ker.cu.o: /usr/include/x86_64-linux-gnu/bits/string_fortified.h
CMakeFiles/DualSPHysics5.0_linux64.dir/DualSPHysics5.0_linux64_generated_JCellDivGpu_ker.cu.o: /usr/include/x86_64-linux-gnu/bits/strings_fortified.h
CMakeFiles/DualSPHysics5.0_linux64.dir/DualSPHysics5.0_linux64_generated_JCellDivGpu_ker.cu.o: /usr/include/x86_64-linux-gnu/bits/struct_mutex.h
CMakeFiles/DualSPHysics5.0_linux64.dir/DualSPHysics5.0_linux64_generated_JCellDivGpu_ker.cu.o: /usr/include/x86_64-linux-gnu/bits/struct_rwlock.h
CMakeFiles/DualSPHysics5.0_linux64.dir/DualSPHysics5.0_linux64_generated_JCellDivGpu_ker.cu.o: /usr/include/x86_64-linux-gnu/bits/sys_errlist.h
CMakeFiles/DualSPHysics5.0_linux64.dir/DualSPHysics5.0_linux64_generated_JCellDivGpu_ker.cu.o: /usr/include/x86_64-linux-gnu/bits/thread-shared-types.h
CMakeFiles/DualSPHysics5.0_linux64.dir/DualSPHysics5.0_linux64_generated_JCellDivGpu_ker.cu.o: /usr/include/x86_64-linux-gnu/bits/time.h
CMakeFiles/DualSPHysics5.0_linux64.dir/DualSPHysics5.0_linux64_generated_JCellDivGpu_ker.cu.o: /usr/include/x86_64-linux-gnu/bits/time64.h
CMakeFiles/DualSPHysics5.0_linux64.dir/DualSPHysics5.0_linux64_generated_JCellDivGpu_ker.cu.o: /usr/include/x86_64-linux-gnu/bits/timesize.h
CMakeFiles/DualSPHysics5.0_linux64.dir/DualSPHysics5.0_linux64_generated_JCellDivGpu_ker.cu.o: /usr/include/x86_64-linux-gnu/bits/timex.h
CMakeFiles/DualSPHysics5.0_linux64.dir/DualSPHysics5.0_linux64_generated_JCellDivGpu_ker.cu.o: /usr/include/x86_64-linux-gnu/bits/types.h
CMakeFiles/DualSPHysics5.0_linux64.dir/DualSPHysics5.0_linux64_generated_JCellDivGpu_ker.cu.o: /usr/include/x86_64-linux-gnu/bits/types/FILE.h
CMakeFiles/DualSPHysics5.0_linux64.dir/DualSPHysics5.0_linux64_generated_JCellDivGpu_ker.cu.o: /usr/include/x86_64-linux-gnu/bits/types/__FILE.h
CMakeFiles/DualSPHysics5.0_linux64.dir/DualSPHysics5.0_linux64_generated_JCellDivGpu_ker.cu.o: /usr/include/x86_64-linux-gnu/bits/types/__fpos64_t.h
CMakeFiles/DualSPHysics5.0_linux64.dir/DualSPHysics5.0_linux64_generated_JCellDivGpu_ker.cu.o: /usr/include/x86_64-linux-gnu/bits/types/__fpos_t.h
CMakeFiles/DualSPHysics5.0_linux64.dir/DualSPHysics5.0_linux64_generated_JCellDivGpu_ker.cu.o: /usr/include/x86_64-linux-gnu/bits/types/__locale_t.h
CMakeFiles/DualSPHysics5.0_linux64.dir/DualSPHysics5.0_linux64_generated_JCellDivGpu_ker.cu.o: /usr/include/x86_64-linux-gnu/bits/types/__mbstate_t.h
CMakeFiles/DualSPHysics5.0_linux64.dir/DualSPHysics5.0_linux64_generated_JCellDivGpu_ker.cu.o: /usr/include/x86_64-linux-gnu/bits/types/__sigset_t.h
CMakeFiles/DualSPHysics5.0_linux64.dir/DualSPHysics5.0_linux64_generated_JCellDivGpu_ker.cu.o: /usr/include/x86_64-linux-gnu/bits/types/clock_t.h
CMakeFiles/DualSPHysics5.0_linux64.dir/DualSPHysics5.0_linux64_generated_JCellDivGpu_ker.cu.o: /usr/include/x86_64-linux-gnu/bits/types/clockid_t.h
CMakeFiles/DualSPHysics5.0_linux64.dir/DualSPHysics5.0_linux64_generated_JCellDivGpu_ker.cu.o: /usr/include/x86_64-linux-gnu/bits/types/cookie_io_functions_t.h
CMakeFiles/DualSPHysics5.0_linux64.dir/DualSPHysics5.0_linux64_generated_JCellDivGpu_ker.cu.o: /usr/include/x86_64-linux-gnu/bits/types/error_t.h
CMakeFiles/DualSPHysics5.0_linux64.dir/DualSPHysics5.0_linux64_generated_JCellDivGpu_ker.cu.o: /usr/include/x86_64-linux-gnu/bits/types/locale_t.h
CMakeFiles/DualSPHysics5.0_linux64.dir/DualSPHysics5.0_linux64_generated_JCellDivGpu_ker.cu.o: /usr/include/x86_64-linux-gnu/bits/types/mbstate_t.h
CMakeFiles/DualSPHysics5.0_linux64.dir/DualSPHysics5.0_linux64_generated_JCellDivGpu_ker.cu.o: /usr/include/x86_64-linux-gnu/bits/types/sigset_t.h
CMakeFiles/DualSPHysics5.0_linux64.dir/DualSPHysics5.0_linux64_generated_JCellDivGpu_ker.cu.o: /usr/include/x86_64-linux-gnu/bits/types/struct_FILE.h
CMakeFiles/DualSPHysics5.0_linux64.dir/DualSPHysics5.0_linux64_generated_JCellDivGpu_ker.cu.o: /usr/include/x86_64-linux-gnu/bits/types/struct_itimerspec.h
CMakeFiles/DualSPHysics5.0_linux64.dir/DualSPHysics5.0_linux64_generated_JCellDivGpu_ker.cu.o: /usr/include/x86_64-linux-gnu/bits/types/struct_sched_param.h
CMakeFiles/DualSPHysics5.0_linux64.dir/DualSPHysics5.0_linux64_generated_JCellDivGpu_ker.cu.o: /usr/include/x86_64-linux-gnu/bits/types/struct_statx.h
CMakeFiles/DualSPHysics5.0_linux64.dir/DualSPHysics5.0_linux64_generated_JCellDivGpu_ker.cu.o: /usr/include/x86_64-linux-gnu/bits/types/struct_statx_timestamp.h
CMakeFiles/DualSPHysics5.0_linux64.dir/DualSPHysics5.0_linux64_generated_JCellDivGpu_ker.cu.o: /usr/include/x86_64-linux-gnu/bits/types/struct_timespec.h
CMakeFiles/DualSPHysics5.0_linux64.dir/DualSPHysics5.0_linux64_generated_JCellDivGpu_ker.cu.o: /usr/include/x86_64-linux-gnu/bits/types/struct_timeval.h
CMakeFiles/DualSPHysics5.0_linux64.dir/DualSPHysics5.0_linux64_generated_JCellDivGpu_ker.cu.o: /usr/include/x86_64-linux-gnu/bits/types/struct_tm.h
CMakeFiles/DualSPHysics5.0_linux64.dir/DualSPHysics5.0_linux64_generated_JCellDivGpu_ker.cu.o: /usr/include/x86_64-linux-gnu/bits/types/time_t.h
CMakeFiles/DualSPHysics5.0_linux64.dir/DualSPHysics5.0_linux64_generated_JCellDivGpu_ker.cu.o: /usr/include/x86_64-linux-gnu/bits/types/timer_t.h
CMakeFiles/DualSPHysics5.0_linux64.dir/DualSPHysics5.0_linux64_generated_JCellDivGpu_ker.cu.o: /usr/include/x86_64-linux-gnu/bits/types/wint_t.h
CMakeFiles/DualSPHysics5.0_linux64.dir/DualSPHysics5.0_linux64_generated_JCellDivGpu_ker.cu.o: /usr/include/x86_64-linux-gnu/bits/typesizes.h
CMakeFiles/DualSPHysics5.0_linux64.dir/DualSPHysics5.0_linux64_generated_JCellDivGpu_ker.cu.o: /usr/include/x86_64-linux-gnu/bits/uintn-identity.h
CMakeFiles/DualSPHysics5.0_linux64.dir/DualSPHysics5.0_linux64_generated_JCellDivGpu_ker.cu.o: /usr/include/x86_64-linux-gnu/bits/uio_lim.h
CMakeFiles/DualSPHysics5.0_linux64.dir/DualSPHysics5.0_linux64_generated_JCellDivGpu_ker.cu.o: /usr/include/x86_64-linux-gnu/bits/waitflags.h
CMakeFiles/DualSPHysics5.0_linux64.dir/DualSPHysics5.0_linux64_generated_JCellDivGpu_ker.cu.o: /usr/include/x86_64-linux-gnu/bits/waitstatus.h
CMakeFiles/DualSPHysics5.0_linux64.dir/DualSPHysics5.0_linux64_generated_JCellDivGpu_ker.cu.o: /usr/include/x86_64-linux-gnu/bits/wchar.h
CMakeFiles/DualSPHysics5.0_linux64.dir/DualSPHysics5.0_linux64_generated_JCellDivGpu_ker.cu.o: /usr/include/x86_64-linux-gnu/bits/wchar2.h
CMakeFiles/DualSPHysics5.0_linux64.dir/DualSPHysics5.0_linux64_generated_JCellDivGpu_ker.cu.o: /usr/include/x86_64-linux-gnu/bits/wctype-wchar.h
CMakeFiles/DualSPHysics5.0_linux64.dir/DualSPHysics5.0_linux64_generated_JCellDivGpu_ker.cu.o: /usr/include/x86_64-linux-gnu/bits/wordsize.h
CMakeFiles/DualSPHysics5.0_linux64.dir/DualSPHysics5.0_linux64_generated_JCellDivGpu_ker.cu.o: /usr/include/x86_64-linux-gnu/bits/xopen_lim.h
CMakeFiles/DualSPHysics5.0_linux64.dir/DualSPHysics5.0_linux64_generated_JCellDivGpu_ker.cu.o: /usr/include/x86_64-linux-gnu/c++/7/bits/atomic_word.h
CMakeFiles/DualSPHysics5.0_linux64.dir/DualSPHysics5.0_linux64_generated_JCellDivGpu_ker.cu.o: /usr/include/x86_64-linux-gnu/c++/7/bits/basic_file.h
CMakeFiles/DualSPHysics5.0_linux64.dir/DualSPHysics5.0_linux64_generated_JCellDivGpu_ker.cu.o: /usr/include/x86_64-linux-gnu/c++/7/bits/c++allocator.h
CMakeFiles/DualSPHysics5.0_linux64.dir/DualSPHysics5.0_linux64_generated_JCellDivGpu_ker.cu.o: /usr/include/x86_64-linux-gnu/c++/7/bits/c++config.h
CMakeFiles/DualSPHysics5.0_linux64.dir/DualSPHysics5.0_linux64_generated_JCellDivGpu_ker.cu.o: /usr/include/x86_64-linux-gnu/c++/7/bits/c++io.h
CMakeFiles/DualSPHysics5.0_linux64.dir/DualSPHysics5.0_linux64_generated_JCellDivGpu_ker.cu.o: /usr/include/x86_64-linux-gnu/c++/7/bits/c++locale.h
CMakeFiles/DualSPHysics5.0_linux64.dir/DualSPHysics5.0_linux64_generated_JCellDivGpu_ker.cu.o: /usr/include/x86_64-linux-gnu/c++/7/bits/cpu_defines.h
CMakeFiles/DualSPHysics5.0_linux64.dir/DualSPHysics5.0_linux64_generated_JCellDivGpu_ker.cu.o: /usr/include/x86_64-linux-gnu/c++/7/bits/ctype_base.h
CMakeFiles/DualSPHysics5.0_linux64.dir/DualSPHysics5.0_linux64_generated_JCellDivGpu_ker.cu.o: /usr/include/x86_64-linux-gnu/c++/7/bits/ctype_inline.h
CMakeFiles/DualSPHysics5.0_linux64.dir/DualSPHysics5.0_linux64_generated_JCellDivGpu_ker.cu.o: /usr/include/x86_64-linux-gnu/c++/7/bits/error_constants.h
CMakeFiles/DualSPHysics5.0_linux64.dir/DualSPHysics5.0_linux64_generated_JCellDivGpu_ker.cu.o: /usr/include/x86_64-linux-gnu/c++/7/bits/gthr-default.h
CMakeFiles/DualSPHysics5.0_linux64.dir/DualSPHysics5.0_linux64_generated_JCellDivGpu_ker.cu.o: /usr/include/x86_64-linux-gnu/c++/7/bits/gthr.h
CMakeFiles/DualSPHysics5.0_linux64.dir/DualSPHysics5.0_linux64_generated_JCellDivGpu_ker.cu.o: /usr/include/x86_64-linux-gnu/c++/7/bits/os_defines.h
CMakeFiles/DualSPHysics5.0_linux64.dir/DualSPHysics5.0_linux64_generated_JCellDivGpu_ker.cu.o: /usr/include/x86_64-linux-gnu/gnu/stubs-64.h
CMakeFiles/DualSPHysics5.0_linux64.dir/DualSPHysics5.0_linux64_generated_JCellDivGpu_ker.cu.o: /usr/include/x86_64-linux-gnu/gnu/stubs.h
CMakeFiles/DualSPHysics5.0_linux64.dir/DualSPHysics5.0_linux64_generated_JCellDivGpu_ker.cu.o: /usr/include/x86_64-linux-gnu/sys/cdefs.h
CMakeFiles/DualSPHysics5.0_linux64.dir/DualSPHysics5.0_linux64_generated_JCellDivGpu_ker.cu.o: /usr/include/x86_64-linux-gnu/sys/select.h
CMakeFiles/DualSPHysics5.0_linux64.dir/DualSPHysics5.0_linux64_generated_JCellDivGpu_ker.cu.o: /usr/include/x86_64-linux-gnu/sys/stat.h
CMakeFiles/DualSPHysics5.0_linux64.dir/DualSPHysics5.0_linux64_generated_JCellDivGpu_ker.cu.o: /usr/include/x86_64-linux-gnu/sys/types.h
CMakeFiles/DualSPHysics5.0_linux64.dir/DualSPHysics5.0_linux64_generated_JCellDivGpu_ker.cu.o: /usr/lib/gcc/x86_64-linux-gnu/7/include/float.h
CMakeFiles/DualSPHysics5.0_linux64.dir/DualSPHysics5.0_linux64_generated_JCellDivGpu_ker.cu.o: /usr/lib/gcc/x86_64-linux-gnu/7/include/limits.h
CMakeFiles/DualSPHysics5.0_linux64.dir/DualSPHysics5.0_linux64_generated_JCellDivGpu_ker.cu.o: /usr/lib/gcc/x86_64-linux-gnu/7/include/omp.h
CMakeFiles/DualSPHysics5.0_linux64.dir/DualSPHysics5.0_linux64_generated_JCellDivGpu_ker.cu.o: /usr/lib/gcc/x86_64-linux-gnu/7/include/stdarg.h
CMakeFiles/DualSPHysics5.0_linux64.dir/DualSPHysics5.0_linux64_generated_JCellDivGpu_ker.cu.o: /usr/lib/gcc/x86_64-linux-gnu/7/include/stddef.h
CMakeFiles/DualSPHysics5.0_linux64.dir/DualSPHysics5.0_linux64_generated_JCellDivGpu_ker.cu.o: /usr/lib/gcc/x86_64-linux-gnu/7/include/stdint.h
CMakeFiles/DualSPHysics5.0_linux64.dir/DualSPHysics5.0_linux64_generated_JCellDivGpu_ker.cu.o: /usr/lib/gcc/x86_64-linux-gnu/7/include/syslimits.h
CMakeFiles/DualSPHysics5.0_linux64.dir/DualSPHysics5.0_linux64_generated_JCellDivGpu_ker.cu.o: /usr/local/cuda-10.1/include/builtin_types.h
CMakeFiles/DualSPHysics5.0_linux64.dir/DualSPHysics5.0_linux64_generated_JCellDivGpu_ker.cu.o: /usr/local/cuda-10.1/include/channel_descriptor.h
CMakeFiles/DualSPHysics5.0_linux64.dir/DualSPHysics5.0_linux64_generated_JCellDivGpu_ker.cu.o: /usr/local/cuda-10.1/include/crt/common_functions.h
CMakeFiles/DualSPHysics5.0_linux64.dir/DualSPHysics5.0_linux64_generated_JCellDivGpu_ker.cu.o: /usr/local/cuda-10.1/include/crt/device_double_functions.h
CMakeFiles/DualSPHysics5.0_linux64.dir/DualSPHysics5.0_linux64_generated_JCellDivGpu_ker.cu.o: /usr/local/cuda-10.1/include/crt/device_double_functions.hpp
CMakeFiles/DualSPHysics5.0_linux64.dir/DualSPHysics5.0_linux64_generated_JCellDivGpu_ker.cu.o: /usr/local/cuda-10.1/include/crt/device_functions.h
CMakeFiles/DualSPHysics5.0_linux64.dir/DualSPHysics5.0_linux64_generated_JCellDivGpu_ker.cu.o: /usr/local/cuda-10.1/include/crt/device_functions.hpp
CMakeFiles/DualSPHysics5.0_linux64.dir/DualSPHysics5.0_linux64_generated_JCellDivGpu_ker.cu.o: /usr/local/cuda-10.1/include/crt/host_config.h
CMakeFiles/DualSPHysics5.0_linux64.dir/DualSPHysics5.0_linux64_generated_JCellDivGpu_ker.cu.o: /usr/local/cuda-10.1/include/crt/host_defines.h
CMakeFiles/DualSPHysics5.0_linux64.dir/DualSPHysics5.0_linux64_generated_JCellDivGpu_ker.cu.o: /usr/local/cuda-10.1/include/crt/math_functions.h
CMakeFiles/DualSPHysics5.0_linux64.dir/DualSPHysics5.0_linux64_generated_JCellDivGpu_ker.cu.o: /usr/local/cuda-10.1/include/crt/math_functions.hpp
CMakeFiles/DualSPHysics5.0_linux64.dir/DualSPHysics5.0_linux64_generated_JCellDivGpu_ker.cu.o: /usr/local/cuda-10.1/include/crt/sm_70_rt.h
CMakeFiles/DualSPHysics5.0_linux64.dir/DualSPHysics5.0_linux64_generated_JCellDivGpu_ker.cu.o: /usr/local/cuda-10.1/include/crt/sm_70_rt.hpp
CMakeFiles/DualSPHysics5.0_linux64.dir/DualSPHysics5.0_linux64_generated_JCellDivGpu_ker.cu.o: /usr/local/cuda-10.1/include/cuda_device_runtime_api.h
CMakeFiles/DualSPHysics5.0_linux64.dir/DualSPHysics5.0_linux64_generated_JCellDivGpu_ker.cu.o: /usr/local/cuda-10.1/include/cuda_fp16.h
CMakeFiles/DualSPHysics5.0_linux64.dir/DualSPHysics5.0_linux64_generated_JCellDivGpu_ker.cu.o: /usr/local/cuda-10.1/include/cuda_fp16.hpp
CMakeFiles/DualSPHysics5.0_linux64.dir/DualSPHysics5.0_linux64_generated_JCellDivGpu_ker.cu.o: /usr/local/cuda-10.1/include/cuda_occupancy.h
CMakeFiles/DualSPHysics5.0_linux64.dir/DualSPHysics5.0_linux64_generated_JCellDivGpu_ker.cu.o: /usr/local/cuda-10.1/include/cuda_runtime.h
CMakeFiles/DualSPHysics5.0_linux64.dir/DualSPHysics5.0_linux64_generated_JCellDivGpu_ker.cu.o: /usr/local/cuda-10.1/include/cuda_runtime_api.h
CMakeFiles/DualSPHysics5.0_linux64.dir/DualSPHysics5.0_linux64_generated_JCellDivGpu_ker.cu.o: /usr/local/cuda-10.1/include/cuda_surface_types.h
CMakeFiles/DualSPHysics5.0_linux64.dir/DualSPHysics5.0_linux64_generated_JCellDivGpu_ker.cu.o: /usr/local/cuda-10.1/include/cuda_texture_types.h
CMakeFiles/DualSPHysics5.0_linux64.dir/DualSPHysics5.0_linux64_generated_JCellDivGpu_ker.cu.o: /usr/local/cuda-10.1/include/device_atomic_functions.h
CMakeFiles/DualSPHysics5.0_linux64.dir/DualSPHysics5.0_linux64_generated_JCellDivGpu_ker.cu.o: /usr/local/cuda-10.1/include/device_atomic_functions.hpp
CMakeFiles/DualSPHysics5.0_linux64.dir/DualSPHysics5.0_linux64_generated_JCellDivGpu_ker.cu.o: /usr/local/cuda-10.1/include/device_launch_parameters.h
CMakeFiles/DualSPHysics5.0_linux64.dir/DualSPHysics5.0_linux64_generated_JCellDivGpu_ker.cu.o: /usr/local/cuda-10.1/include/device_types.h
CMakeFiles/DualSPHysics5.0_linux64.dir/DualSPHysics5.0_linux64_generated_JCellDivGpu_ker.cu.o: /usr/local/cuda-10.1/include/driver_functions.h
CMakeFiles/DualSPHysics5.0_linux64.dir/DualSPHysics5.0_linux64_generated_JCellDivGpu_ker.cu.o: /usr/local/cuda-10.1/include/driver_types.h
CMakeFiles/DualSPHysics5.0_linux64.dir/DualSPHysics5.0_linux64_generated_JCellDivGpu_ker.cu.o: /usr/local/cuda-10.1/include/library_types.h
CMakeFiles/DualSPHysics5.0_linux64.dir/DualSPHysics5.0_linux64_generated_JCellDivGpu_ker.cu.o: /usr/local/cuda-10.1/include/sm_20_atomic_functions.h
CMakeFiles/DualSPHysics5.0_linux64.dir/DualSPHysics5.0_linux64_generated_JCellDivGpu_ker.cu.o: /usr/local/cuda-10.1/include/sm_20_atomic_functions.hpp
CMakeFiles/DualSPHysics5.0_linux64.dir/DualSPHysics5.0_linux64_generated_JCellDivGpu_ker.cu.o: /usr/local/cuda-10.1/include/sm_20_intrinsics.h
CMakeFiles/DualSPHysics5.0_linux64.dir/DualSPHysics5.0_linux64_generated_JCellDivGpu_ker.cu.o: /usr/local/cuda-10.1/include/sm_20_intrinsics.hpp
CMakeFiles/DualSPHysics5.0_linux64.dir/DualSPHysics5.0_linux64_generated_JCellDivGpu_ker.cu.o: /usr/local/cuda-10.1/include/sm_30_intrinsics.h
CMakeFiles/DualSPHysics5.0_linux64.dir/DualSPHysics5.0_linux64_generated_JCellDivGpu_ker.cu.o: /usr/local/cuda-10.1/include/sm_30_intrinsics.hpp
CMakeFiles/DualSPHysics5.0_linux64.dir/DualSPHysics5.0_linux64_generated_JCellDivGpu_ker.cu.o: /usr/local/cuda-10.1/include/sm_32_atomic_functions.h
CMakeFiles/DualSPHysics5.0_linux64.dir/DualSPHysics5.0_linux64_generated_JCellDivGpu_ker.cu.o: /usr/local/cuda-10.1/include/sm_32_atomic_functions.hpp
CMakeFiles/DualSPHysics5.0_linux64.dir/DualSPHysics5.0_linux64_generated_JCellDivGpu_ker.cu.o: /usr/local/cuda-10.1/include/sm_32_intrinsics.h
CMakeFiles/DualSPHysics5.0_linux64.dir/DualSPHysics5.0_linux64_generated_JCellDivGpu_ker.cu.o: /usr/local/cuda-10.1/include/sm_32_intrinsics.hpp
CMakeFiles/DualSPHysics5.0_linux64.dir/DualSPHysics5.0_linux64_generated_JCellDivGpu_ker.cu.o: /usr/local/cuda-10.1/include/sm_35_atomic_functions.h
CMakeFiles/DualSPHysics5.0_linux64.dir/DualSPHysics5.0_linux64_generated_JCellDivGpu_ker.cu.o: /usr/local/cuda-10.1/include/sm_35_intrinsics.h
CMakeFiles/DualSPHysics5.0_linux64.dir/DualSPHysics5.0_linux64_generated_JCellDivGpu_ker.cu.o: /usr/local/cuda-10.1/include/sm_60_atomic_functions.h
CMakeFiles/DualSPHysics5.0_linux64.dir/DualSPHysics5.0_linux64_generated_JCellDivGpu_ker.cu.o: /usr/local/cuda-10.1/include/sm_60_atomic_functions.hpp
CMakeFiles/DualSPHysics5.0_linux64.dir/DualSPHysics5.0_linux64_generated_JCellDivGpu_ker.cu.o: /usr/local/cuda-10.1/include/sm_61_intrinsics.h
CMakeFiles/DualSPHysics5.0_linux64.dir/DualSPHysics5.0_linux64_generated_JCellDivGpu_ker.cu.o: /usr/local/cuda-10.1/include/sm_61_intrinsics.hpp
CMakeFiles/DualSPHysics5.0_linux64.dir/DualSPHysics5.0_linux64_generated_JCellDivGpu_ker.cu.o: /usr/local/cuda-10.1/include/surface_functions.h
CMakeFiles/DualSPHysics5.0_linux64.dir/DualSPHysics5.0_linux64_generated_JCellDivGpu_ker.cu.o: /usr/local/cuda-10.1/include/surface_indirect_functions.h
CMakeFiles/DualSPHysics5.0_linux64.dir/DualSPHysics5.0_linux64_generated_JCellDivGpu_ker.cu.o: /usr/local/cuda-10.1/include/surface_types.h
CMakeFiles/DualSPHysics5.0_linux64.dir/DualSPHysics5.0_linux64_generated_JCellDivGpu_ker.cu.o: /usr/local/cuda-10.1/include/texture_fetch_functions.h
CMakeFiles/DualSPHysics5.0_linux64.dir/DualSPHysics5.0_linux64_generated_JCellDivGpu_ker.cu.o: /usr/local/cuda-10.1/include/texture_indirect_functions.h
CMakeFiles/DualSPHysics5.0_linux64.dir/DualSPHysics5.0_linux64_generated_JCellDivGpu_ker.cu.o: /usr/local/cuda-10.1/include/texture_types.h
CMakeFiles/DualSPHysics5.0_linux64.dir/DualSPHysics5.0_linux64_generated_JCellDivGpu_ker.cu.o: /usr/local/cuda-10.1/include/thrust/adjacent_difference.h
CMakeFiles/DualSPHysics5.0_linux64.dir/DualSPHysics5.0_linux64_generated_JCellDivGpu_ker.cu.o: /usr/local/cuda-10.1/include/thrust/advance.h
CMakeFiles/DualSPHysics5.0_linux64.dir/DualSPHysics5.0_linux64_generated_JCellDivGpu_ker.cu.o: /usr/local/cuda-10.1/include/thrust/copy.h
CMakeFiles/DualSPHysics5.0_linux64.dir/DualSPHysics5.0_linux64_generated_JCellDivGpu_ker.cu.o: /usr/local/cuda-10.1/include/thrust/count.h
CMakeFiles/DualSPHysics5.0_linux64.dir/DualSPHysics5.0_linux64_generated_JCellDivGpu_ker.cu.o: /usr/local/cuda-10.1/include/thrust/detail/adjacent_difference.inl
CMakeFiles/DualSPHysics5.0_linux64.dir/DualSPHysics5.0_linux64_generated_JCellDivGpu_ker.cu.o: /usr/local/cuda-10.1/include/thrust/detail/advance.inl
CMakeFiles/DualSPHysics5.0_linux64.dir/DualSPHysics5.0_linux64_generated_JCellDivGpu_ker.cu.o: /usr/local/cuda-10.1/include/thrust/detail/alignment.h
CMakeFiles/DualSPHysics5.0_linux64.dir/DualSPHysics5.0_linux64_generated_JCellDivGpu_ker.cu.o: /usr/local/cuda-10.1/include/thrust/detail/allocator/allocator_traits.h
CMakeFiles/DualSPHysics5.0_linux64.dir/DualSPHysics5.0_linux64_generated_JCellDivGpu_ker.cu.o: /usr/local/cuda-10.1/include/thrust/detail/allocator/allocator_traits.inl
CMakeFiles/DualSPHysics5.0_linux64.dir/DualSPHysics5.0_linux64_generated_JCellDivGpu_ker.cu.o: /usr/local/cuda-10.1/include/thrust/detail/allocator/copy_construct_range.h
CMakeFiles/DualSPHysics5.0_linux64.dir/DualSPHysics5.0_linux64_generated_JCellDivGpu_ker.cu.o: /usr/local/cuda-10.1/include/thrust/detail/allocator/copy_construct_range.inl
CMakeFiles/DualSPHysics5.0_linux64.dir/DualSPHysics5.0_linux64_generated_JCellDivGpu_ker.cu.o: /usr/local/cuda-10.1/include/thrust/detail/allocator/default_construct_range.h
CMakeFiles/DualSPHysics5.0_linux64.dir/DualSPHysics5.0_linux64_generated_JCellDivGpu_ker.cu.o: /usr/local/cuda-10.1/include/thrust/detail/allocator/default_construct_range.inl
CMakeFiles/DualSPHysics5.0_linux64.dir/DualSPHysics5.0_linux64_generated_JCellDivGpu_ker.cu.o: /usr/local/cuda-10.1/include/thrust/detail/allocator/destroy_range.h
CMakeFiles/DualSPHysics5.0_linux64.dir/DualSPHysics5.0_linux64_generated_JCellDivGpu_ker.cu.o: /usr/local/cuda-10.1/include/thrust/detail/allocator/destroy_range.inl
CMakeFiles/DualSPHysics5.0_linux64.dir/DualSPHysics5.0_linux64_generated_JCellDivGpu_ker.cu.o: /usr/local/cuda-10.1/include/thrust/detail/allocator/fill_construct_range.h
CMakeFiles/DualSPHysics5.0_linux64.dir/DualSPHysics5.0_linux64_generated_JCellDivGpu_ker.cu.o: /usr/local/cuda-10.1/include/thrust/detail/allocator/fill_construct_range.inl
CMakeFiles/DualSPHysics5.0_linux64.dir/DualSPHysics5.0_linux64_generated_JCellDivGpu_ker.cu.o: /usr/local/cuda-10.1/include/thrust/detail/allocator/no_throw_allocator.h
CMakeFiles/DualSPHysics5.0_linux64.dir/DualSPHysics5.0_linux64_generated_JCellDivGpu_ker.cu.o: /usr/local/cuda-10.1/include/thrust/detail/allocator/tagged_allocator.h
CMakeFiles/DualSPHysics5.0_linux64.dir/DualSPHysics5.0_linux64_generated_JCellDivGpu_ker.cu.o: /usr/local/cuda-10.1/include/thrust/detail/allocator/tagged_allocator.inl
CMakeFiles/DualSPHysics5.0_linux64.dir/DualSPHysics5.0_linux64_generated_JCellDivGpu_ker.cu.o: /usr/local/cuda-10.1/include/thrust/detail/allocator/temporary_allocator.h
CMakeFiles/DualSPHysics5.0_linux64.dir/DualSPHysics5.0_linux64_generated_JCellDivGpu_ker.cu.o: /usr/local/cuda-10.1/include/thrust/detail/allocator/temporary_allocator.inl
CMakeFiles/DualSPHysics5.0_linux64.dir/DualSPHysics5.0_linux64_generated_JCellDivGpu_ker.cu.o: /usr/local/cuda-10.1/include/thrust/detail/allocator_aware_execution_policy.h
CMakeFiles/DualSPHysics5.0_linux64.dir/DualSPHysics5.0_linux64_generated_JCellDivGpu_ker.cu.o: /usr/local/cuda-10.1/include/thrust/detail/config.h
CMakeFiles/DualSPHysics5.0_linux64.dir/DualSPHysics5.0_linux64_generated_JCellDivGpu_ker.cu.o: /usr/local/cuda-10.1/include/thrust/detail/config/compiler.h
CMakeFiles/DualSPHysics5.0_linux64.dir/DualSPHysics5.0_linux64_generated_JCellDivGpu_ker.cu.o: /usr/local/cuda-10.1/include/thrust/detail/config/config.h
CMakeFiles/DualSPHysics5.0_linux64.dir/DualSPHysics5.0_linux64_generated_JCellDivGpu_ker.cu.o: /usr/local/cuda-10.1/include/thrust/detail/config/cpp_compatibility.h
CMakeFiles/DualSPHysics5.0_linux64.dir/DualSPHysics5.0_linux64_generated_JCellDivGpu_ker.cu.o: /usr/local/cuda-10.1/include/thrust/detail/config/cpp_dialect.h
CMakeFiles/DualSPHysics5.0_linux64.dir/DualSPHysics5.0_linux64_generated_JCellDivGpu_ker.cu.o: /usr/local/cuda-10.1/include/thrust/detail/config/debug.h
CMakeFiles/DualSPHysics5.0_linux64.dir/DualSPHysics5.0_linux64_generated_JCellDivGpu_ker.cu.o: /usr/local/cuda-10.1/include/thrust/detail/config/device_system.h
CMakeFiles/DualSPHysics5.0_linux64.dir/DualSPHysics5.0_linux64_generated_JCellDivGpu_ker.cu.o: /usr/local/cuda-10.1/include/thrust/detail/config/exec_check_disable.h
CMakeFiles/DualSPHysics5.0_linux64.dir/DualSPHysics5.0_linux64_generated_JCellDivGpu_ker.cu.o: /usr/local/cuda-10.1/include/thrust/detail/config/forceinline.h
CMakeFiles/DualSPHysics5.0_linux64.dir/DualSPHysics5.0_linux64_generated_JCellDivGpu_ker.cu.o: /usr/local/cuda-10.1/include/thrust/detail/config/global_workarounds.h
CMakeFiles/DualSPHysics5.0_linux64.dir/DualSPHysics5.0_linux64_generated_JCellDivGpu_ker.cu.o: /usr/local/cuda-10.1/include/thrust/detail/config/host_device.h
CMakeFiles/DualSPHysics5.0_linux64.dir/DualSPHysics5.0_linux64_generated_JCellDivGpu_ker.cu.o: /usr/local/cuda-10.1/include/thrust/detail/config/host_system.h
CMakeFiles/DualSPHysics5.0_linux64.dir/DualSPHysics5.0_linux64_generated_JCellDivGpu_ker.cu.o: /usr/local/cuda-10.1/include/thrust/detail/config/simple_defines.h
CMakeFiles/DualSPHysics5.0_linux64.dir/DualSPHysics5.0_linux64_generated_JCellDivGpu_ker.cu.o: /usr/local/cuda-10.1/include/thrust/detail/contiguous_storage.h
CMakeFiles/DualSPHysics5.0_linux64.dir/DualSPHysics5.0_linux64_generated_JCellDivGpu_ker.cu.o: /usr/local/cuda-10.1/include/thrust/detail/contiguous_storage.inl
CMakeFiles/DualSPHysics5.0_linux64.dir/DualSPHysics5.0_linux64_generated_JCellDivGpu_ker.cu.o: /usr/local/cuda-10.1/include/thrust/detail/copy.h
CMakeFiles/DualSPHysics5.0_linux64.dir/DualSPHysics5.0_linux64_generated_JCellDivGpu_ker.cu.o: /usr/local/cuda-10.1/include/thrust/detail/copy.inl
CMakeFiles/DualSPHysics5.0_linux64.dir/DualSPHysics5.0_linux64_generated_JCellDivGpu_ker.cu.o: /usr/local/cuda-10.1/include/thrust/detail/copy_if.h
CMakeFiles/DualSPHysics5.0_linux64.dir/DualSPHysics5.0_linux64_generated_JCellDivGpu_ker.cu.o: /usr/local/cuda-10.1/include/thrust/detail/copy_if.inl
CMakeFiles/DualSPHysics5.0_linux64.dir/DualSPHysics5.0_linux64_generated_JCellDivGpu_ker.cu.o: /usr/local/cuda-10.1/include/thrust/detail/count.inl
CMakeFiles/DualSPHysics5.0_linux64.dir/DualSPHysics5.0_linux64_generated_JCellDivGpu_ker.cu.o: /usr/local/cuda-10.1/include/thrust/detail/cpp11_required.h
CMakeFiles/DualSPHysics5.0_linux64.dir/DualSPHysics5.0_linux64_generated_JCellDivGpu_ker.cu.o: /usr/local/cuda-10.1/include/thrust/detail/cstdint.h
CMakeFiles/DualSPHysics5.0_linux64.dir/DualSPHysics5.0_linux64_generated_JCellDivGpu_ker.cu.o: /usr/local/cuda-10.1/include/thrust/detail/dependencies_aware_execution_policy.h
CMakeFiles/DualSPHysics5.0_linux64.dir/DualSPHysics5.0_linux64_generated_JCellDivGpu_ker.cu.o: /usr/local/cuda-10.1/include/thrust/detail/device_ptr.inl
CMakeFiles/DualSPHysics5.0_linux64.dir/DualSPHysics5.0_linux64_generated_JCellDivGpu_ker.cu.o: /usr/local/cuda-10.1/include/thrust/detail/device_reference.inl
CMakeFiles/DualSPHysics5.0_linux64.dir/DualSPHysics5.0_linux64_generated_JCellDivGpu_ker.cu.o: /usr/local/cuda-10.1/include/thrust/detail/device_vector.inl
CMakeFiles/DualSPHysics5.0_linux64.dir/DualSPHysics5.0_linux64_generated_JCellDivGpu_ker.cu.o: /usr/local/cuda-10.1/include/thrust/detail/distance.inl
CMakeFiles/DualSPHysics5.0_linux64.dir/DualSPHysics5.0_linux64_generated_JCellDivGpu_ker.cu.o: /usr/local/cuda-10.1/include/thrust/detail/equal.inl
CMakeFiles/DualSPHysics5.0_linux64.dir/DualSPHysics5.0_linux64_generated_JCellDivGpu_ker.cu.o: /usr/local/cuda-10.1/include/thrust/detail/execute_with_allocator.h
CMakeFiles/DualSPHysics5.0_linux64.dir/DualSPHysics5.0_linux64_generated_JCellDivGpu_ker.cu.o: /usr/local/cuda-10.1/include/thrust/detail/execute_with_allocator_fwd.h
CMakeFiles/DualSPHysics5.0_linux64.dir/DualSPHysics5.0_linux64_generated_JCellDivGpu_ker.cu.o: /usr/local/cuda-10.1/include/thrust/detail/execute_with_dependencies.h
CMakeFiles/DualSPHysics5.0_linux64.dir/DualSPHysics5.0_linux64_generated_JCellDivGpu_ker.cu.o: /usr/local/cuda-10.1/include/thrust/detail/execution_policy.h
CMakeFiles/DualSPHysics5.0_linux64.dir/DualSPHysics5.0_linux64_generated_JCellDivGpu_ker.cu.o: /usr/local/cuda-10.1/include/thrust/detail/extrema.inl
CMakeFiles/DualSPHysics5.0_linux64.dir/DualSPHysics5.0_linux64_generated_JCellDivGpu_ker.cu.o: /usr/local/cuda-10.1/include/thrust/detail/fill.inl
CMakeFiles/DualSPHysics5.0_linux64.dir/DualSPHysics5.0_linux64_generated_JCellDivGpu_ker.cu.o: /usr/local/cuda-10.1/include/thrust/detail/find.inl
CMakeFiles/DualSPHysics5.0_linux64.dir/DualSPHysics5.0_linux64_generated_JCellDivGpu_ker.cu.o: /usr/local/cuda-10.1/include/thrust/detail/for_each.inl
CMakeFiles/DualSPHysics5.0_linux64.dir/DualSPHysics5.0_linux64_generated_JCellDivGpu_ker.cu.o: /usr/local/cuda-10.1/include/thrust/detail/function.h
CMakeFiles/DualSPHysics5.0_linux64.dir/DualSPHysics5.0_linux64_generated_JCellDivGpu_ker.cu.o: /usr/local/cuda-10.1/include/thrust/detail/functional.inl
CMakeFiles/DualSPHysics5.0_linux64.dir/DualSPHysics5.0_linux64_generated_JCellDivGpu_ker.cu.o: /usr/local/cuda-10.1/include/thrust/detail/functional/actor.h
CMakeFiles/DualSPHysics5.0_linux64.dir/DualSPHysics5.0_linux64_generated_JCellDivGpu_ker.cu.o: /usr/local/cuda-10.1/include/thrust/detail/functional/actor.inl
CMakeFiles/DualSPHysics5.0_linux64.dir/DualSPHysics5.0_linux64_generated_JCellDivGpu_ker.cu.o: /usr/local/cuda-10.1/include/thrust/detail/functional/argument.h
CMakeFiles/DualSPHysics5.0_linux64.dir/DualSPHysics5.0_linux64_generated_JCellDivGpu_ker.cu.o: /usr/local/cuda-10.1/include/thrust/detail/functional/composite.h
CMakeFiles/DualSPHysics5.0_linux64.dir/DualSPHysics5.0_linux64_generated_JCellDivGpu_ker.cu.o: /usr/local/cuda-10.1/include/thrust/detail/functional/operators.h
CMakeFiles/DualSPHysics5.0_linux64.dir/DualSPHysics5.0_linux64_generated_JCellDivGpu_ker.cu.o: /usr/local/cuda-10.1/include/thrust/detail/functional/operators/arithmetic_operators.h
CMakeFiles/DualSPHysics5.0_linux64.dir/DualSPHysics5.0_linux64_generated_JCellDivGpu_ker.cu.o: /usr/local/cuda-10.1/include/thrust/detail/functional/operators/assignment_operator.h
CMakeFiles/DualSPHysics5.0_linux64.dir/DualSPHysics5.0_linux64_generated_JCellDivGpu_ker.cu.o: /usr/local/cuda-10.1/include/thrust/detail/functional/operators/bitwise_operators.h
CMakeFiles/DualSPHysics5.0_linux64.dir/DualSPHysics5.0_linux64_generated_JCellDivGpu_ker.cu.o: /usr/local/cuda-10.1/include/thrust/detail/functional/operators/compound_assignment_operators.h
CMakeFiles/DualSPHysics5.0_linux64.dir/DualSPHysics5.0_linux64_generated_JCellDivGpu_ker.cu.o: /usr/local/cuda-10.1/include/thrust/detail/functional/operators/logical_operators.h
CMakeFiles/DualSPHysics5.0_linux64.dir/DualSPHysics5.0_linux64_generated_JCellDivGpu_ker.cu.o: /usr/local/cuda-10.1/include/thrust/detail/functional/operators/operator_adaptors.h
CMakeFiles/DualSPHysics5.0_linux64.dir/DualSPHysics5.0_linux64_generated_JCellDivGpu_ker.cu.o: /usr/local/cuda-10.1/include/thrust/detail/functional/operators/relational_operators.h
CMakeFiles/DualSPHysics5.0_linux64.dir/DualSPHysics5.0_linux64_generated_JCellDivGpu_ker.cu.o: /usr/local/cuda-10.1/include/thrust/detail/functional/placeholder.h
CMakeFiles/DualSPHysics5.0_linux64.dir/DualSPHysics5.0_linux64_generated_JCellDivGpu_ker.cu.o: /usr/local/cuda-10.1/include/thrust/detail/functional/value.h
CMakeFiles/DualSPHysics5.0_linux64.dir/DualSPHysics5.0_linux64_generated_JCellDivGpu_ker.cu.o: /usr/local/cuda-10.1/include/thrust/detail/generate.inl
CMakeFiles/DualSPHysics5.0_linux64.dir/DualSPHysics5.0_linux64_generated_JCellDivGpu_ker.cu.o: /usr/local/cuda-10.1/include/thrust/detail/get_iterator_value.h
CMakeFiles/DualSPHysics5.0_linux64.dir/DualSPHysics5.0_linux64_generated_JCellDivGpu_ker.cu.o: /usr/local/cuda-10.1/include/thrust/detail/host_vector.inl
CMakeFiles/DualSPHysics5.0_linux64.dir/DualSPHysics5.0_linux64_generated_JCellDivGpu_ker.cu.o: /usr/local/cuda-10.1/include/thrust/detail/integer_math.h
CMakeFiles/DualSPHysics5.0_linux64.dir/DualSPHysics5.0_linux64_generated_JCellDivGpu_ker.cu.o: /usr/local/cuda-10.1/include/thrust/detail/integer_traits.h
CMakeFiles/DualSPHysics5.0_linux64.dir/DualSPHysics5.0_linux64_generated_JCellDivGpu_ker.cu.o: /usr/local/cuda-10.1/include/thrust/detail/internal_functional.h
CMakeFiles/DualSPHysics5.0_linux64.dir/DualSPHysics5.0_linux64_generated_JCellDivGpu_ker.cu.o: /usr/local/cuda-10.1/include/thrust/detail/malloc_and_free.h
CMakeFiles/DualSPHysics5.0_linux64.dir/DualSPHysics5.0_linux64_generated_JCellDivGpu_ker.cu.o: /usr/local/cuda-10.1/include/thrust/detail/merge.inl
CMakeFiles/DualSPHysics5.0_linux64.dir/DualSPHysics5.0_linux64_generated_JCellDivGpu_ker.cu.o: /usr/local/cuda-10.1/include/thrust/detail/minmax.h
CMakeFiles/DualSPHysics5.0_linux64.dir/DualSPHysics5.0_linux64_generated_JCellDivGpu_ker.cu.o: /usr/local/cuda-10.1/include/thrust/detail/mismatch.inl
CMakeFiles/DualSPHysics5.0_linux64.dir/DualSPHysics5.0_linux64_generated_JCellDivGpu_ker.cu.o: /usr/local/cuda-10.1/include/thrust/detail/mpl/math.h
CMakeFiles/DualSPHysics5.0_linux64.dir/DualSPHysics5.0_linux64_generated_JCellDivGpu_ker.cu.o: /usr/local/cuda-10.1/include/thrust/detail/numeric_traits.h
CMakeFiles/DualSPHysics5.0_linux64.dir/DualSPHysics5.0_linux64_generated_JCellDivGpu_ker.cu.o: /usr/local/cuda-10.1/include/thrust/detail/overlapped_copy.h
CMakeFiles/DualSPHysics5.0_linux64.dir/DualSPHysics5.0_linux64_generated_JCellDivGpu_ker.cu.o: /usr/local/cuda-10.1/include/thrust/detail/pair.inl
CMakeFiles/DualSPHysics5.0_linux64.dir/DualSPHysics5.0_linux64_generated_JCellDivGpu_ker.cu.o: /usr/local/cuda-10.1/include/thrust/detail/partition.inl
CMakeFiles/DualSPHysics5.0_linux64.dir/DualSPHysics5.0_linux64_generated_JCellDivGpu_ker.cu.o: /usr/local/cuda-10.1/include/thrust/detail/pointer.h
CMakeFiles/DualSPHysics5.0_linux64.dir/DualSPHysics5.0_linux64_generated_JCellDivGpu_ker.cu.o: /usr/local/cuda-10.1/include/thrust/detail/pointer.inl
CMakeFiles/DualSPHysics5.0_linux64.dir/DualSPHysics5.0_linux64_generated_JCellDivGpu_ker.cu.o: /usr/local/cuda-10.1/include/thrust/detail/preprocessor.h
CMakeFiles/DualSPHysics5.0_linux64.dir/DualSPHysics5.0_linux64_generated_JCellDivGpu_ker.cu.o: /usr/local/cuda-10.1/include/thrust/detail/range/head_flags.h
CMakeFiles/DualSPHysics5.0_linux64.dir/DualSPHysics5.0_linux64_generated_JCellDivGpu_ker.cu.o: /usr/local/cuda-10.1/include/thrust/detail/raw_pointer_cast.h
CMakeFiles/DualSPHysics5.0_linux64.dir/DualSPHysics5.0_linux64_generated_JCellDivGpu_ker.cu.o: /usr/local/cuda-10.1/include/thrust/detail/raw_reference_cast.h
CMakeFiles/DualSPHysics5.0_linux64.dir/DualSPHysics5.0_linux64_generated_JCellDivGpu_ker.cu.o: /usr/local/cuda-10.1/include/thrust/detail/reduce.inl
CMakeFiles/DualSPHysics5.0_linux64.dir/DualSPHysics5.0_linux64_generated_JCellDivGpu_ker.cu.o: /usr/local/cuda-10.1/include/thrust/detail/reference.h
CMakeFiles/DualSPHysics5.0_linux64.dir/DualSPHysics5.0_linux64_generated_JCellDivGpu_ker.cu.o: /usr/local/cuda-10.1/include/thrust/detail/reference.inl
CMakeFiles/DualSPHysics5.0_linux64.dir/DualSPHysics5.0_linux64_generated_JCellDivGpu_ker.cu.o: /usr/local/cuda-10.1/include/thrust/detail/reference_forward_declaration.h
CMakeFiles/DualSPHysics5.0_linux64.dir/DualSPHysics5.0_linux64_generated_JCellDivGpu_ker.cu.o: /usr/local/cuda-10.1/include/thrust/detail/remove.inl
CMakeFiles/DualSPHysics5.0_linux64.dir/DualSPHysics5.0_linux64_generated_JCellDivGpu_ker.cu.o: /usr/local/cuda-10.1/include/thrust/detail/replace.inl
CMakeFiles/DualSPHysics5.0_linux64.dir/DualSPHysics5.0_linux64_generated_JCellDivGpu_ker.cu.o: /usr/local/cuda-10.1/include/thrust/detail/reverse.inl
CMakeFiles/DualSPHysics5.0_linux64.dir/DualSPHysics5.0_linux64_generated_JCellDivGpu_ker.cu.o: /usr/local/cuda-10.1/include/thrust/detail/scan.inl
CMakeFiles/DualSPHysics5.0_linux64.dir/DualSPHysics5.0_linux64_generated_JCellDivGpu_ker.cu.o: /usr/local/cuda-10.1/include/thrust/detail/scatter.inl
CMakeFiles/DualSPHysics5.0_linux64.dir/DualSPHysics5.0_linux64_generated_JCellDivGpu_ker.cu.o: /usr/local/cuda-10.1/include/thrust/detail/seq.h
CMakeFiles/DualSPHysics5.0_linux64.dir/DualSPHysics5.0_linux64_generated_JCellDivGpu_ker.cu.o: /usr/local/cuda-10.1/include/thrust/detail/sequence.inl
CMakeFiles/DualSPHysics5.0_linux64.dir/DualSPHysics5.0_linux64_generated_JCellDivGpu_ker.cu.o: /usr/local/cuda-10.1/include/thrust/detail/set_operations.inl
CMakeFiles/DualSPHysics5.0_linux64.dir/DualSPHysics5.0_linux64_generated_JCellDivGpu_ker.cu.o: /usr/local/cuda-10.1/include/thrust/detail/sort.inl
CMakeFiles/DualSPHysics5.0_linux64.dir/DualSPHysics5.0_linux64_generated_JCellDivGpu_ker.cu.o: /usr/local/cuda-10.1/include/thrust/detail/static_assert.h
CMakeFiles/DualSPHysics5.0_linux64.dir/DualSPHysics5.0_linux64_generated_JCellDivGpu_ker.cu.o: /usr/local/cuda-10.1/include/thrust/detail/swap.h
CMakeFiles/DualSPHysics5.0_linux64.dir/DualSPHysics5.0_linux64_generated_JCellDivGpu_ker.cu.o: /usr/local/cuda-10.1/include/thrust/detail/swap.inl
CMakeFiles/DualSPHysics5.0_linux64.dir/DualSPHysics5.0_linux64_generated_JCellDivGpu_ker.cu.o: /usr/local/cuda-10.1/include/thrust/detail/swap_ranges.inl
CMakeFiles/DualSPHysics5.0_linux64.dir/DualSPHysics5.0_linux64_generated_JCellDivGpu_ker.cu.o: /usr/local/cuda-10.1/include/thrust/detail/tabulate.inl
CMakeFiles/DualSPHysics5.0_linux64.dir/DualSPHysics5.0_linux64_generated_JCellDivGpu_ker.cu.o: /usr/local/cuda-10.1/include/thrust/detail/temporary_array.h
CMakeFiles/DualSPHysics5.0_linux64.dir/DualSPHysics5.0_linux64_generated_JCellDivGpu_ker.cu.o: /usr/local/cuda-10.1/include/thrust/detail/temporary_array.inl
CMakeFiles/DualSPHysics5.0_linux64.dir/DualSPHysics5.0_linux64_generated_JCellDivGpu_ker.cu.o: /usr/local/cuda-10.1/include/thrust/detail/temporary_buffer.h
CMakeFiles/DualSPHysics5.0_linux64.dir/DualSPHysics5.0_linux64_generated_JCellDivGpu_ker.cu.o: /usr/local/cuda-10.1/include/thrust/detail/transform.inl
CMakeFiles/DualSPHysics5.0_linux64.dir/DualSPHysics5.0_linux64_generated_JCellDivGpu_ker.cu.o: /usr/local/cuda-10.1/include/thrust/detail/transform_reduce.inl
CMakeFiles/DualSPHysics5.0_linux64.dir/DualSPHysics5.0_linux64_generated_JCellDivGpu_ker.cu.o: /usr/local/cuda-10.1/include/thrust/detail/trivial_sequence.h
CMakeFiles/DualSPHysics5.0_linux64.dir/DualSPHysics5.0_linux64_generated_JCellDivGpu_ker.cu.o: /usr/local/cuda-10.1/include/thrust/detail/tuple.inl
CMakeFiles/DualSPHysics5.0_linux64.dir/DualSPHysics5.0_linux64_generated_JCellDivGpu_ker.cu.o: /usr/local/cuda-10.1/include/thrust/detail/tuple_meta_transform.h
CMakeFiles/DualSPHysics5.0_linux64.dir/DualSPHysics5.0_linux64_generated_JCellDivGpu_ker.cu.o: /usr/local/cuda-10.1/include/thrust/detail/tuple_transform.h
CMakeFiles/DualSPHysics5.0_linux64.dir/DualSPHysics5.0_linux64_generated_JCellDivGpu_ker.cu.o: /usr/local/cuda-10.1/include/thrust/detail/type_deduction.h
CMakeFiles/DualSPHysics5.0_linux64.dir/DualSPHysics5.0_linux64_generated_JCellDivGpu_ker.cu.o: /usr/local/cuda-10.1/include/thrust/detail/type_traits.h
CMakeFiles/DualSPHysics5.0_linux64.dir/DualSPHysics5.0_linux64_generated_JCellDivGpu_ker.cu.o: /usr/local/cuda-10.1/include/thrust/detail/type_traits/algorithm/intermediate_type_from_function_and_iterators.h
CMakeFiles/DualSPHysics5.0_linux64.dir/DualSPHysics5.0_linux64_generated_JCellDivGpu_ker.cu.o: /usr/local/cuda-10.1/include/thrust/detail/type_traits/function_traits.h
CMakeFiles/DualSPHysics5.0_linux64.dir/DualSPHysics5.0_linux64_generated_JCellDivGpu_ker.cu.o: /usr/local/cuda-10.1/include/thrust/detail/type_traits/has_member_function.h
CMakeFiles/DualSPHysics5.0_linux64.dir/DualSPHysics5.0_linux64_generated_JCellDivGpu_ker.cu.o: /usr/local/cuda-10.1/include/thrust/detail/type_traits/has_nested_type.h
CMakeFiles/DualSPHysics5.0_linux64.dir/DualSPHysics5.0_linux64_generated_JCellDivGpu_ker.cu.o: /usr/local/cuda-10.1/include/thrust/detail/type_traits/has_trivial_assign.h
CMakeFiles/DualSPHysics5.0_linux64.dir/DualSPHysics5.0_linux64_generated_JCellDivGpu_ker.cu.o: /usr/local/cuda-10.1/include/thrust/detail/type_traits/is_call_possible.h
CMakeFiles/DualSPHysics5.0_linux64.dir/DualSPHysics5.0_linux64_generated_JCellDivGpu_ker.cu.o: /usr/local/cuda-10.1/include/thrust/detail/type_traits/is_metafunction_defined.h
CMakeFiles/DualSPHysics5.0_linux64.dir/DualSPHysics5.0_linux64_generated_JCellDivGpu_ker.cu.o: /usr/local/cuda-10.1/include/thrust/detail/type_traits/iterator/is_output_iterator.h
CMakeFiles/DualSPHysics5.0_linux64.dir/DualSPHysics5.0_linux64_generated_JCellDivGpu_ker.cu.o: /usr/local/cuda-10.1/include/thrust/detail/type_traits/minimum_type.h
CMakeFiles/DualSPHysics5.0_linux64.dir/DualSPHysics5.0_linux64_generated_JCellDivGpu_ker.cu.o: /usr/local/cuda-10.1/include/thrust/detail/type_traits/pointer_traits.h
CMakeFiles/DualSPHysics5.0_linux64.dir/DualSPHysics5.0_linux64_generated_JCellDivGpu_ker.cu.o: /usr/local/cuda-10.1/include/thrust/detail/type_traits/result_of_adaptable_function.h
CMakeFiles/DualSPHysics5.0_linux64.dir/DualSPHysics5.0_linux64_generated_JCellDivGpu_ker.cu.o: /usr/local/cuda-10.1/include/thrust/detail/uninitialized_fill.inl
CMakeFiles/DualSPHysics5.0_linux64.dir/DualSPHysics5.0_linux64_generated_JCellDivGpu_ker.cu.o: /usr/local/cuda-10.1/include/thrust/detail/unique.inl
CMakeFiles/DualSPHysics5.0_linux64.dir/DualSPHysics5.0_linux64_generated_JCellDivGpu_ker.cu.o: /usr/local/cuda-10.1/include/thrust/detail/use_default.h
CMakeFiles/DualSPHysics5.0_linux64.dir/DualSPHysics5.0_linux64_generated_JCellDivGpu_ker.cu.o: /usr/local/cuda-10.1/include/thrust/detail/vector_base.h
CMakeFiles/DualSPHysics5.0_linux64.dir/DualSPHysics5.0_linux64_generated_JCellDivGpu_ker.cu.o: /usr/local/cuda-10.1/include/thrust/detail/vector_base.inl
CMakeFiles/DualSPHysics5.0_linux64.dir/DualSPHysics5.0_linux64_generated_JCellDivGpu_ker.cu.o: /usr/local/cuda-10.1/include/thrust/device_allocator.h
CMakeFiles/DualSPHysics5.0_linux64.dir/DualSPHysics5.0_linux64_generated_JCellDivGpu_ker.cu.o: /usr/local/cuda-10.1/include/thrust/device_ptr.h
CMakeFiles/DualSPHysics5.0_linux64.dir/DualSPHysics5.0_linux64_generated_JCellDivGpu_ker.cu.o: /usr/local/cuda-10.1/include/thrust/device_reference.h
CMakeFiles/DualSPHysics5.0_linux64.dir/DualSPHysics5.0_linux64_generated_JCellDivGpu_ker.cu.o: /usr/local/cuda-10.1/include/thrust/device_vector.h
CMakeFiles/DualSPHysics5.0_linux64.dir/DualSPHysics5.0_linux64_generated_JCellDivGpu_ker.cu.o: /usr/local/cuda-10.1/include/thrust/distance.h
CMakeFiles/DualSPHysics5.0_linux64.dir/DualSPHysics5.0_linux64_generated_JCellDivGpu_ker.cu.o: /usr/local/cuda-10.1/include/thrust/equal.h
CMakeFiles/DualSPHysics5.0_linux64.dir/DualSPHysics5.0_linux64_generated_JCellDivGpu_ker.cu.o: /usr/local/cuda-10.1/include/thrust/execution_policy.h
CMakeFiles/DualSPHysics5.0_linux64.dir/DualSPHysics5.0_linux64_generated_JCellDivGpu_ker.cu.o: /usr/local/cuda-10.1/include/thrust/extrema.h
CMakeFiles/DualSPHysics5.0_linux64.dir/DualSPHysics5.0_linux64_generated_JCellDivGpu_ker.cu.o: /usr/local/cuda-10.1/include/thrust/fill.h
CMakeFiles/DualSPHysics5.0_linux64.dir/DualSPHysics5.0_linux64_generated_JCellDivGpu_ker.cu.o: /usr/local/cuda-10.1/include/thrust/find.h
CMakeFiles/DualSPHysics5.0_linux64.dir/DualSPHysics5.0_linux64_generated_JCellDivGpu_ker.cu.o: /usr/local/cuda-10.1/include/thrust/for_each.h
CMakeFiles/DualSPHysics5.0_linux64.dir/DualSPHysics5.0_linux64_generated_JCellDivGpu_ker.cu.o: /usr/local/cuda-10.1/include/thrust/functional.h
CMakeFiles/DualSPHysics5.0_linux64.dir/DualSPHysics5.0_linux64_generated_JCellDivGpu_ker.cu.o: /usr/local/cuda-10.1/include/thrust/generate.h
CMakeFiles/DualSPHysics5.0_linux64.dir/DualSPHysics5.0_linux64_generated_JCellDivGpu_ker.cu.o: /usr/local/cuda-10.1/include/thrust/host_vector.h
CMakeFiles/DualSPHysics5.0_linux64.dir/DualSPHysics5.0_linux64_generated_JCellDivGpu_ker.cu.o: /usr/local/cuda-10.1/include/thrust/iterator/constant_iterator.h
CMakeFiles/DualSPHysics5.0_linux64.dir/DualSPHysics5.0_linux64_generated_JCellDivGpu_ker.cu.o: /usr/local/cuda-10.1/include/thrust/iterator/counting_iterator.h
CMakeFiles/DualSPHysics5.0_linux64.dir/DualSPHysics5.0_linux64_generated_JCellDivGpu_ker.cu.o: /usr/local/cuda-10.1/include/thrust/iterator/detail/any_assign.h
CMakeFiles/DualSPHysics5.0_linux64.dir/DualSPHysics5.0_linux64_generated_JCellDivGpu_ker.cu.o: /usr/local/cuda-10.1/include/thrust/iterator/detail/any_system_tag.h
CMakeFiles/DualSPHysics5.0_linux64.dir/DualSPHysics5.0_linux64_generated_JCellDivGpu_ker.cu.o: /usr/local/cuda-10.1/include/thrust/iterator/detail/constant_iterator_base.h
CMakeFiles/DualSPHysics5.0_linux64.dir/DualSPHysics5.0_linux64_generated_JCellDivGpu_ker.cu.o: /usr/local/cuda-10.1/include/thrust/iterator/detail/counting_iterator.inl
CMakeFiles/DualSPHysics5.0_linux64.dir/DualSPHysics5.0_linux64_generated_JCellDivGpu_ker.cu.o: /usr/local/cuda-10.1/include/thrust/iterator/detail/device_system_tag.h
CMakeFiles/DualSPHysics5.0_linux64.dir/DualSPHysics5.0_linux64_generated_JCellDivGpu_ker.cu.o: /usr/local/cuda-10.1/include/thrust/iterator/detail/distance_from_result.h
CMakeFiles/DualSPHysics5.0_linux64.dir/DualSPHysics5.0_linux64_generated_JCellDivGpu_ker.cu.o: /usr/local/cuda-10.1/include/thrust/iterator/detail/host_system_tag.h
CMakeFiles/DualSPHysics5.0_linux64.dir/DualSPHysics5.0_linux64_generated_JCellDivGpu_ker.cu.o: /usr/local/cuda-10.1/include/thrust/iterator/detail/is_iterator_category.h
CMakeFiles/DualSPHysics5.0_linux64.dir/DualSPHysics5.0_linux64_generated_JCellDivGpu_ker.cu.o: /usr/local/cuda-10.1/include/thrust/iterator/detail/iterator_adaptor_base.h
CMakeFiles/DualSPHysics5.0_linux64.dir/DualSPHysics5.0_linux64_generated_JCellDivGpu_ker.cu.o: /usr/local/cuda-10.1/include/thrust/iterator/detail/iterator_category_to_system.h
CMakeFiles/DualSPHysics5.0_linux64.dir/DualSPHysics5.0_linux64_generated_JCellDivGpu_ker.cu.o: /usr/local/cuda-10.1/include/thrust/iterator/detail/iterator_category_to_traversal.h
CMakeFiles/DualSPHysics5.0_linux64.dir/DualSPHysics5.0_linux64_generated_JCellDivGpu_ker.cu.o: /usr/local/cuda-10.1/include/thrust/iterator/detail/iterator_category_with_system_and_traversal.h
CMakeFiles/DualSPHysics5.0_linux64.dir/DualSPHysics5.0_linux64_generated_JCellDivGpu_ker.cu.o: /usr/local/cuda-10.1/include/thrust/iterator/detail/iterator_facade_category.h
CMakeFiles/DualSPHysics5.0_linux64.dir/DualSPHysics5.0_linux64_generated_JCellDivGpu_ker.cu.o: /usr/local/cuda-10.1/include/thrust/iterator/detail/iterator_traits.inl
CMakeFiles/DualSPHysics5.0_linux64.dir/DualSPHysics5.0_linux64_generated_JCellDivGpu_ker.cu.o: /usr/local/cuda-10.1/include/thrust/iterator/detail/iterator_traversal_tags.h
CMakeFiles/DualSPHysics5.0_linux64.dir/DualSPHysics5.0_linux64_generated_JCellDivGpu_ker.cu.o: /usr/local/cuda-10.1/include/thrust/iterator/detail/minimum_category.h
CMakeFiles/DualSPHysics5.0_linux64.dir/DualSPHysics5.0_linux64_generated_JCellDivGpu_ker.cu.o: /usr/local/cuda-10.1/include/thrust/iterator/detail/minimum_system.h
CMakeFiles/DualSPHysics5.0_linux64.dir/DualSPHysics5.0_linux64_generated_JCellDivGpu_ker.cu.o: /usr/local/cuda-10.1/include/thrust/iterator/detail/normal_iterator.h
CMakeFiles/DualSPHysics5.0_linux64.dir/DualSPHysics5.0_linux64_generated_JCellDivGpu_ker.cu.o: /usr/local/cuda-10.1/include/thrust/iterator/detail/permutation_iterator_base.h
CMakeFiles/DualSPHysics5.0_linux64.dir/DualSPHysics5.0_linux64_generated_JCellDivGpu_ker.cu.o: /usr/local/cuda-10.1/include/thrust/iterator/detail/reverse_iterator.inl
CMakeFiles/DualSPHysics5.0_linux64.dir/DualSPHysics5.0_linux64_generated_JCellDivGpu_ker.cu.o: /usr/local/cuda-10.1/include/thrust/iterator/detail/reverse_iterator_base.h
CMakeFiles/DualSPHysics5.0_linux64.dir/DualSPHysics5.0_linux64_generated_JCellDivGpu_ker.cu.o: /usr/local/cuda-10.1/include/thrust/iterator/detail/tagged_iterator.h
CMakeFiles/DualSPHysics5.0_linux64.dir/DualSPHysics5.0_linux64_generated_JCellDivGpu_ker.cu.o: /usr/local/cuda-10.1/include/thrust/iterator/detail/transform_iterator.inl
CMakeFiles/DualSPHysics5.0_linux64.dir/DualSPHysics5.0_linux64_generated_JCellDivGpu_ker.cu.o: /usr/local/cuda-10.1/include/thrust/iterator/detail/tuple_of_iterator_references.h
CMakeFiles/DualSPHysics5.0_linux64.dir/DualSPHysics5.0_linux64_generated_JCellDivGpu_ker.cu.o: /usr/local/cuda-10.1/include/thrust/iterator/detail/universal_categories.h
CMakeFiles/DualSPHysics5.0_linux64.dir/DualSPHysics5.0_linux64_generated_JCellDivGpu_ker.cu.o: /usr/local/cuda-10.1/include/thrust/iterator/detail/zip_iterator.inl
CMakeFiles/DualSPHysics5.0_linux64.dir/DualSPHysics5.0_linux64_generated_JCellDivGpu_ker.cu.o: /usr/local/cuda-10.1/include/thrust/iterator/detail/zip_iterator_base.h
CMakeFiles/DualSPHysics5.0_linux64.dir/DualSPHysics5.0_linux64_generated_JCellDivGpu_ker.cu.o: /usr/local/cuda-10.1/include/thrust/iterator/iterator_adaptor.h
CMakeFiles/DualSPHysics5.0_linux64.dir/DualSPHysics5.0_linux64_generated_JCellDivGpu_ker.cu.o: /usr/local/cuda-10.1/include/thrust/iterator/iterator_categories.h
CMakeFiles/DualSPHysics5.0_linux64.dir/DualSPHysics5.0_linux64_generated_JCellDivGpu_ker.cu.o: /usr/local/cuda-10.1/include/thrust/iterator/iterator_facade.h
CMakeFiles/DualSPHysics5.0_linux64.dir/DualSPHysics5.0_linux64_generated_JCellDivGpu_ker.cu.o: /usr/local/cuda-10.1/include/thrust/iterator/iterator_traits.h
CMakeFiles/DualSPHysics5.0_linux64.dir/DualSPHysics5.0_linux64_generated_JCellDivGpu_ker.cu.o: /usr/local/cuda-10.1/include/thrust/iterator/permutation_iterator.h
CMakeFiles/DualSPHysics5.0_linux64.dir/DualSPHysics5.0_linux64_generated_JCellDivGpu_ker.cu.o: /usr/local/cuda-10.1/include/thrust/iterator/reverse_iterator.h
CMakeFiles/DualSPHysics5.0_linux64.dir/DualSPHysics5.0_linux64_generated_JCellDivGpu_ker.cu.o: /usr/local/cuda-10.1/include/thrust/iterator/transform_iterator.h
CMakeFiles/DualSPHysics5.0_linux64.dir/DualSPHysics5.0_linux64_generated_JCellDivGpu_ker.cu.o: /usr/local/cuda-10.1/include/thrust/iterator/zip_iterator.h
CMakeFiles/DualSPHysics5.0_linux64.dir/DualSPHysics5.0_linux64_generated_JCellDivGpu_ker.cu.o: /usr/local/cuda-10.1/include/thrust/memory.h
CMakeFiles/DualSPHysics5.0_linux64.dir/DualSPHysics5.0_linux64_generated_JCellDivGpu_ker.cu.o: /usr/local/cuda-10.1/include/thrust/memory/detail/device_system_resource.h
CMakeFiles/DualSPHysics5.0_linux64.dir/DualSPHysics5.0_linux64_generated_JCellDivGpu_ker.cu.o: /usr/local/cuda-10.1/include/thrust/memory/detail/host_system_resource.h
CMakeFiles/DualSPHysics5.0_linux64.dir/DualSPHysics5.0_linux64_generated_JCellDivGpu_ker.cu.o: /usr/local/cuda-10.1/include/thrust/merge.h
CMakeFiles/DualSPHysics5.0_linux64.dir/DualSPHysics5.0_linux64_generated_JCellDivGpu_ker.cu.o: /usr/local/cuda-10.1/include/thrust/mismatch.h
CMakeFiles/DualSPHysics5.0_linux64.dir/DualSPHysics5.0_linux64_generated_JCellDivGpu_ker.cu.o: /usr/local/cuda-10.1/include/thrust/mr/allocator.h
CMakeFiles/DualSPHysics5.0_linux64.dir/DualSPHysics5.0_linux64_generated_JCellDivGpu_ker.cu.o: /usr/local/cuda-10.1/include/thrust/mr/detail/config.h
[...]
"/home/prashant/Documents/Git/ForkDSPH/DualSPHysics/src/build-source-Imported_Kit-Debug/CMakeFiles/DualSPHysics5.0_linux64.dir/DualSPHysics5.0_linux64_generated_JDsGauge_ker.cu.o" \
"/home/prashant/Documents/Git/ForkDSPH/DualSPHysics/src/build-source-Imported_Kit-Debug/CMakeFiles/DualSPHysics5.0_linux64.dir/DualSPHysics5.0_linux64_generated_JReduSum_ker.cu.o" \
"/home/prashant/Documents/Git/ForkDSPH/DualSPHysics/src/build-source-Imported_Kit-Debug/CMakeFiles/DualSPHysics5.0_linux64.dir/DualSPHysics5.0_linux64_generated_JSphShifting_ker.cu.o" \
"/home/prashant/Documents/Git/ForkDSPH/DualSPHysics/src/build-source-Imported_Kit-Debug/CMakeFiles/DualSPHysics5.0_linux64.dir/DualSPHysics5.0_linux64_generated_JDsAccInput_ker.cu.o" \
"/home/prashant/Documents/Git/ForkDSPH/DualSPHysics/src/build-source-Imported_Kit-Debug/CMakeFiles/DualSPHysics5.0_linux64.dir/DualSPHysics5.0_linux64_generated_JSphGpu_ker.cu.o" \
"/home/prashant/Documents/Git/ForkDSPH/DualSPHysics/src/build-source-Imported_Kit-Debug/CMakeFiles/DualSPHysics5.0_linux64.dir/DualSPHysics5.0_linux64_generated_JSphGpuSimple_ker.cu.o" \
"/home/prashant/Documents/Git/ForkDSPH/DualSPHysics/src/build-source-Imported_Kit-Debug/CMakeFiles/DualSPHysics5.0_linux64.dir/DualSPHysics5.0_linux64_generated_JWaveOrder2_ker.cu.o" \
"/home/prashant/Documents/Git/ForkDSPH/DualSPHysics/src/build-source-Imported_Kit-Debug/CMakeFiles/DualSPHysics5.0_linux64.dir/DualSPHysics5.0_linux64_generated_JRelaxZone_ker.cu.o"

/home/prashant/Documents/Git/ForkDSPH/DualSPHysics/bin/linux/DualSPHysics5.0_linux64: CMakeFiles/DualSPHysics5.0_linux64.dir/JXml.cpp.o
/home/prashant/Documents/Git/ForkDSPH/DualSPHysics/bin/linux/DualSPHysics5.0_linux64: CMakeFiles/DualSPHysics5.0_linux64.dir/tinystr.cpp.o
/home/prashant/Documents/Git/ForkDSPH/DualSPHysics/bin/linux/DualSPHysics5.0_linux64: CMakeFiles/DualSPHysics5.0_linux64.dir/tinyxml.cpp.o
/home/prashant/Documents/Git/ForkDSPH/DualSPHysics/bin/linux/DualSPHysics5.0_linux64: CMakeFiles/DualSPHysics5.0_linux64.dir/tinyxmlerror.cpp.o
/home/prashant/Documents/Git/ForkDSPH/DualSPHysics/bin/linux/DualSPHysics5.0_linux64: CMakeFiles/DualSPHysics5.0_linux64.dir/tinyxmlparser.cpp.o
/home/prashant/Documents/Git/ForkDSPH/DualSPHysics/bin/linux/DualSPHysics5.0_linux64: CMakeFiles/DualSPHysics5.0_linux64.dir/JMotion.cpp.o
/home/prashant/Documents/Git/ForkDSPH/DualSPHysics/bin/linux/DualSPHysics5.0_linux64: CMakeFiles/DualSPHysics5.0_linux64.dir/JMotionList.cpp.o
/home/prashant/Documents/Git/ForkDSPH/DualSPHysics/bin/linux/DualSPHysics5.0_linux64: CMakeFiles/DualSPHysics5.0_linux64.dir/JMotionMov.cpp.o
/home/prashant/Documents/Git/ForkDSPH/DualSPHysics/bin/linux/DualSPHysics5.0_linux64: CMakeFiles/DualSPHysics5.0_linux64.dir/JMotionObj.cpp.o
/home/prashant/Documents/Git/ForkDSPH/DualSPHysics/bin/linux/DualSPHysics5.0_linux64: CMakeFiles/DualSPHysics5.0_linux64.dir/JMotionPos.cpp.o
/home/prashant/Documents/Git/ForkDSPH/DualSPHysics/bin/linux/DualSPHysics5.0_linux64: CMakeFiles/DualSPHysics5.0_linux64.dir/JDsMotion.cpp.o
/home/prashant/Documents/Git/ForkDSPH/DualSPHysics/bin/linux/DualSPHysics5.0_linux64: CMakeFiles/DualSPHysics5.0_linux64.dir/Functions.cpp.o
/home/prashant/Documents/Git/ForkDSPH/DualSPHysics/bin/linux/DualSPHysics5.0_linux64: CMakeFiles/DualSPHysics5.0_linux64.dir/FunctionsGeo3d.cpp.o
/home/prashant/Documents/Git/ForkDSPH/DualSPHysics/bin/linux/DualSPHysics5.0_linux64: CMakeFiles/DualSPHysics5.0_linux64.dir/FunSphKernelsCfg.cpp.o
/home/prashant/Documents/Git/ForkDSPH/DualSPHysics/bin/linux/DualSPHysics5.0_linux64: CMakeFiles/DualSPHysics5.0_linux64.dir/JAppInfo.cpp.o
/home/prashant/Documents/Git/ForkDSPH/DualSPHysics/bin/linux/DualSPHysics5.0_linux64: CMakeFiles/DualSPHysics5.0_linux64.dir/JBinaryData.cpp.o
/home/prashant/Documents/Git/ForkDSPH/DualSPHysics/bin/linux/DualSPHysics5.0_linux64: CMakeFiles/DualSPHysics5.0_linux64.dir/JCfgRunBase.cpp.o
/home/prashant/Documents/Git/ForkDSPH/DualSPHysics/bin/linux/DualSPHysics5.0_linux64: CMakeFiles/DualSPHysics5.0_linux64.dir/JDataArrays.cpp.o
/home/prashant/Documents/Git/ForkDSPH/DualSPHysics/bin/linux/DualSPHysics5.0_linux64: CMakeFiles/DualSPHysics5.0_linux64.dir/JException.cpp.o
/home/prashant/Documents/Git/ForkDSPH/DualSPHysics/bin/linux/DualSPHysics5.0_linux64: CMakeFiles/DualSPHysics5.0_linux64.dir/JLinearValue.cpp.o
/home/prashant/Documents/Git/ForkDSPH/DualSPHysics/bin/linux/DualSPHysics5.0_linux64: CMakeFiles/DualSPHysics5.0_linux64.dir/JLog2.cpp.o
/home/prashant/Documents/Git/ForkDSPH/DualSPHysics/bin/linux/DualSPHysics5.0_linux64: CMakeFiles/DualSPHysics5.0_linux64.dir/JMeanValues.cpp.o
/home/prashant/Documents/Git/ForkDSPH/DualSPHysics/bin/linux/DualSPHysics5.0_linux64: CMakeFiles/DualSPHysics5.0_linux64.dir/JObject.cpp.o
/home/prashant/Documents/Git/ForkDSPH/DualSPHysics/bin/linux/DualSPHysics5.0_linux64: CMakeFiles/DualSPHysics5.0_linux64.dir/JOutputCsv.cpp.o
/home/prashant/Documents/Git/ForkDSPH/DualSPHysics/bin/linux/DualSPHysics5.0_linux64: CMakeFiles/DualSPHysics5.0_linux64.dir/JRadixSort.cpp.o
/home/prashant/Documents/Git/ForkDSPH/DualSPHysics/bin/linux/DualSPHysics5.0_linux64: CMakeFiles/DualSPHysics5.0_linux64.dir/JRangeFilter.cpp.o
/home/prashant/Documents/Git/ForkDSPH/DualSPHysics/bin/linux/DualSPHysics5.0_linux64: CMakeFiles/DualSPHysics5.0_linux64.dir/JReadDatafile.cpp.o
/home/prashant/Documents/Git/ForkDSPH/DualSPHysics/bin/linux/DualSPHysics5.0_linux64: CMakeFiles/DualSPHysics5.0_linux64.dir/JSaveCsv2.cpp.o
/home/prashant/Documents/Git/ForkDSPH/DualSPHysics/bin/linux/DualSPHysics5.0_linux64: CMakeFiles/DualSPHysics5.0_linux64.dir/JTimeControl.cpp.o
/home/prashant/Documents/Git/ForkDSPH/DualSPHysics/bin/linux/DualSPHysics5.0_linux64: CMakeFiles/DualSPHysics5.0_linux64.dir/randomc.cpp.o
/home/prashant/Documents/Git/ForkDSPH/DualSPHysics/bin/linux/DualSPHysics5.0_linux64: CMakeFiles/DualSPHysics5.0_linux64.dir/JDsphConfig.cpp.o
/home/prashant/Documents/Git/ForkDSPH/DualSPHysics/bin/linux/DualSPHysics5.0_linux64: CMakeFiles/DualSPHysics5.0_linux64.dir/JDsPips.cpp.o
/home/prashant/Documents/Git/ForkDSPH/DualSPHysics/bin/linux/DualSPHysics5.0_linux64: CMakeFiles/DualSPHysics5.0_linux64.dir/JPartDataBi4.cpp.o
/home/prashant/Documents/Git/ForkDSPH/DualSPHysics/bin/linux/DualSPHysics5.0_linux64: CMakeFiles/DualSPHysics5.0_linux64.dir/JPartDataHead.cpp.o
/home/prashant/Documents/Git/ForkDSPH/DualSPHysics/bin/linux/DualSPHysics5.0_linux64: CMakeFiles/DualSPHysics5.0_linux64.dir/JPartFloatBi4.cpp.o
/home/prashant/Documents/Git/ForkDSPH/DualSPHysics/bin/linux/DualSPHysics5.0_linux64: CMakeFiles/DualSPHysics5.0_linux64.dir/JPartOutBi4Save.cpp.o
/home/prashant/Documents/Git/ForkDSPH/DualSPHysics/bin/linux/DualSPHysics5.0_linux64: CMakeFiles/DualSPHysics5.0_linux64.dir/JCaseCtes.cpp.o
/home/prashant/Documents/Git/ForkDSPH/DualSPHysics/bin/linux/DualSPHysics5.0_linux64: CMakeFiles/DualSPHysics5.0_linux64.dir/JCaseEParms.cpp.o
/home/prashant/Documents/Git/ForkDSPH/DualSPHysics/bin/linux/DualSPHysics5.0_linux64: CMakeFiles/DualSPHysics5.0_linux64.dir/JCaseParts.cpp.o
/home/prashant/Documents/Git/ForkDSPH/DualSPHysics/bin/linux/DualSPHysics5.0_linux64: CMakeFiles/DualSPHysics5.0_linux64.dir/JCaseProperties.cpp.o
/home/prashant/Documents/Git/ForkDSPH/DualSPHysics/bin/linux/DualSPHysics5.0_linux64: CMakeFiles/DualSPHysics5.0_linux64.dir/JCaseUserVars.cpp.o
/home/prashant/Documents/Git/ForkDSPH/DualSPHysics/bin/linux/DualSPHysics5.0_linux64: CMakeFiles/DualSPHysics5.0_linux64.dir/JCaseVtkOut.cpp.o
/home/prashant/Documents/Git/ForkDSPH/DualSPHysics/bin/linux/DualSPHysics5.0_linux64: CMakeFiles/DualSPHysics5.0_linux64.dir/JArraysCpu.cpp.o
/home/prashant/Documents/Git/ForkDSPH/DualSPHysics/bin/linux/DualSPHysics5.0_linux64: CMakeFiles/DualSPHysics5.0_linux64.dir/JCellDivCpu.cpp.o
/home/prashant/Documents/Git/ForkDSPH/DualSPHysics/bin/linux/DualSPHysics5.0_linux64: CMakeFiles/DualSPHysics5.0_linux64.dir/JSphCfgRun.cpp.o
/home/prashant/Documents/Git/ForkDSPH/DualSPHysics/bin/linux/DualSPHysics5.0_linux64: CMakeFiles/DualSPHysics5.0_linux64.dir/JDsDamping.cpp.o
/home/prashant/Documents/Git/ForkDSPH/DualSPHysics/bin/linux/DualSPHysics5.0_linux64: CMakeFiles/DualSPHysics5.0_linux64.dir/JDsGaugeItem.cpp.o
/home/prashant/Documents/Git/ForkDSPH/DualSPHysics/bin/linux/DualSPHysics5.0_linux64: CMakeFiles/DualSPHysics5.0_linux64.dir/JDsGaugeSystem.cpp.o
/home/prashant/Documents/Git/ForkDSPH/DualSPHysics/bin/linux/DualSPHysics5.0_linux64: CMakeFiles/DualSPHysics5.0_linux64.dir/JDsPartsOut.cpp.o
/home/prashant/Documents/Git/ForkDSPH/DualSPHysics/bin/linux/DualSPHysics5.0_linux64: CMakeFiles/DualSPHysics5.0_linux64.dir/JDsSaveDt.cpp.o
/home/prashant/Documents/Git/ForkDSPH/DualSPHysics/bin/linux/DualSPHysics5.0_linux64: CMakeFiles/DualSPHysics5.0_linux64.dir/JSphShifting.cpp.o
/home/prashant/Documents/Git/ForkDSPH/DualSPHysics/bin/linux/DualSPHysics5.0_linux64: CMakeFiles/DualSPHysics5.0_linux64.dir/JSph.cpp.o
/home/prashant/Documents/Git/ForkDSPH/DualSPHysics/bin/linux/DualSPHysics5.0_linux64: CMakeFiles/DualSPHysics5.0_linux64.dir/JDsAccInput.cpp.o
/home/prashant/Documents/Git/ForkDSPH/DualSPHysics/bin/linux/DualSPHysics5.0_linux64: CMakeFiles/DualSPHysics5.0_linux64.dir/JSphCpu.cpp.o
/home/prashant/Documents/Git/ForkDSPH/DualSPHysics/bin/linux/DualSPHysics5.0_linux64: CMakeFiles/DualSPHysics5.0_linux64.dir/JDsInitialize.cpp.o
/home/prashant/Documents/Git/ForkDSPH/DualSPHysics/bin/linux/DualSPHysics5.0_linux64: CMakeFiles/DualSPHysics5.0_linux64.dir/JSphMk.cpp.o
/home/prashant/Documents/Git/ForkDSPH/DualSPHysics/bin/linux/DualSPHysics5.0_linux64: CMakeFiles/DualSPHysics5.0_linux64.dir/JDsPartsInit.cpp.o
/home/prashant/Documents/Git/ForkDSPH/DualSPHysics/bin/linux/DualSPHysics5.0_linux64: CMakeFiles/DualSPHysics5.0_linux64.dir/JDsFixedDt.cpp.o
/home/prashant/Documents/Git/ForkDSPH/DualSPHysics/bin/linux/DualSPHysics5.0_linux64: CMakeFiles/DualSPHysics5.0_linux64.dir/JDsViscoInput.cpp.o
/home/prashant/Documents/Git/ForkDSPH/DualSPHysics/bin/linux/DualSPHysics5.0_linux64: CMakeFiles/DualSPHysics5.0_linux64.dir/JDsOutputTime.cpp.o
/home/prashant/Documents/Git/ForkDSPH/DualSPHysics/bin/linux/DualSPHysics5.0_linux64: CMakeFiles/DualSPHysics5.0_linux64.dir/JWaveAwasZsurf.cpp.o
/home/prashant/Documents/Git/ForkDSPH/DualSPHysics/bin/linux/DualSPHysics5.0_linux64: CMakeFiles/DualSPHysics5.0_linux64.dir/JWaveSpectrumGpu.cpp.o
/home/prashant/Documents/Git/ForkDSPH/DualSPHysics/bin/linux/DualSPHysics5.0_linux64: CMakeFiles/DualSPHysics5.0_linux64.dir/main.cpp.o
/home/prashant/Documents/Git/ForkDSPH/DualSPHysics/bin/linux/DualSPHysics5.0_linux64: CMakeFiles/DualSPHysics5.0_linux64.dir/JCellDivCpuSingle.cpp.o
/home/prashant/Documents/Git/ForkDSPH/DualSPHysics/bin/linux/DualSPHysics5.0_linux64: CMakeFiles/DualSPHysics5.0_linux64.dir/JPartsLoad4.cpp.o
/home/prashant/Documents/Git/ForkDSPH/DualSPHysics/bin/linux/DualSPHysics5.0_linux64: CMakeFiles/DualSPHysics5.0_linux64.dir/JSphCpuSingle.cpp.o
/home/prashant/Documents/Git/ForkDSPH/DualSPHysics/bin/linux/DualSPHysics5.0_linux64: CMakeFiles/DualSPHysics5.0_linux64.dir/FunctionsCuda.cpp.o
/home/prashant/Documents/Git/ForkDSPH/DualSPHysics/bin/linux/DualSPHysics5.0_linux64: CMakeFiles/DualSPHysics5.0_linux64.dir/JObjectGpu.cpp.o
/home/prashant/Documents/Git/ForkDSPH/DualSPHysics/bin/linux/DualSPHysics5.0_linux64: CMakeFiles/DualSPHysics5.0_linux64.dir/JArraysGpu.cpp.o
/home/prashant/Documents/Git/ForkDSPH/DualSPHysics/bin/linux/DualSPHysics5.0_linux64: CMakeFiles/DualSPHysics5.0_linux64.dir/JDebugSphGpu.cpp.o
/home/prashant/Documents/Git/ForkDSPH/DualSPHysics/bin/linux/DualSPHysics5.0_linux64: CMakeFiles/DualSPHysics5.0_linux64.dir/JCellDivGpu.cpp.o
/home/prashant/Documents/Git/ForkDSPH/DualSPHysics/bin/linux/DualSPHysics5.0_linux64: CMakeFiles/DualSPHysics5.0_linux64.dir/JSphGpu.cpp.o
/home/prashant/Documents/Git/ForkDSPH/DualSPHysics/bin/linux/DualSPHysics5.0_linux64: CMakeFiles/DualSPHysics5.0_linux64.dir/JCellDivGpuSingle.cpp.o
/home/prashant/Documents/Git/ForkDSPH/DualSPHysics/bin/linux/DualSPHysics5.0_linux64: CMakeFiles/DualSPHysics5.0_linux64.dir/JSphGpuSingle.cpp.o
/home/prashant/Documents/Git/ForkDSPH/DualSPHysics/bin/linux/DualSPHysics5.0_linux64: CMakeFiles/DualSPHysics5.0_linux64.dir/JMLPistonsGpu.cpp.o
/home/prashant/Documents/Git/ForkDSPH/DualSPHysics/bin/linux/DualSPHysics5.0_linux64: CMakeFiles/DualSPHysics5.0_linux64.dir/JRelaxZonesGpu.cpp.o
/home/prashant/Documents/Git/ForkDSPH/DualSPHysics/bin/linux/DualSPHysics5.0_linux64: CMakeFiles/DualSPHysics5.0_linux64.dir/JChronoObjects.cpp.o
/home/prashant/Documents/Git/ForkDSPH/DualSPHysics/bin/linux/DualSPHysics5.0_linux64: CMakeFiles/DualSPHysics5.0_linux64.dir/JDsMooredFloatings.cpp.o
/home/prashant/Documents/Git/ForkDSPH/DualSPHysics/bin/linux/DualSPHysics5.0_linux64: CMakeFiles/DualSPHysics5.0_linux64.dir/JDsFtForcePoints.cpp.o
/home/prashant/Documents/Git/ForkDSPH/DualSPHysics/bin/linux/DualSPHysics5.0_linux64: CMakeFiles/DualSPHysics5.0_linux64.dir/JSphCpu_InOut.cpp.o
/home/prashant/Documents/Git/ForkDSPH/DualSPHysics/bin/linux/DualSPHysics5.0_linux64: CMakeFiles/DualSPHysics5.0_linux64.dir/JSphCpuSingle_InOut.cpp.o
/home/prashant/Documents/Git/ForkDSPH/DualSPHysics/bin/linux/DualSPHysics5.0_linux64: CMakeFiles/DualSPHysics5.0_linux64.dir/JSphBoundCorr.cpp.o
/home/prashant/Documents/Git/ForkDSPH/DualSPHysics/bin/linux/DualSPHysics5.0_linux64: CMakeFiles/DualSPHysics5.0_linux64.dir/JSphInOut.cpp.o
/home/prashant/Documents/Git/ForkDSPH/DualSPHysics/bin/linux/DualSPHysics5.0_linux64: CMakeFiles/DualSPHysics5.0_linux64.dir/JSphInOutZone.cpp.o
/home/prashant/Documents/Git/ForkDSPH/DualSPHysics/bin/linux/DualSPHysics5.0_linux64: CMakeFiles/DualSPHysics5.0_linux64.dir/JSphInOutGridData.cpp.o
/home/prashant/Documents/Git/ForkDSPH/DualSPHysics/bin/linux/DualSPHysics5.0_linux64: CMakeFiles/DualSPHysics5.0_linux64.dir/JSphInOutPoints.cpp.o
/home/prashant/Documents/Git/ForkDSPH/DualSPHysics/bin/linux/DualSPHysics5.0_linux64: CMakeFiles/DualSPHysics5.0_linux64.dir/JSimpleNeigs.cpp.o
/home/prashant/Documents/Git/ForkDSPH/DualSPHysics/bin/linux/DualSPHysics5.0_linux64: CMakeFiles/DualSPHysics5.0_linux64.dir/JSphGpuSingle_InOut.cpp.o
/home/prashant/Documents/Git/ForkDSPH/DualSPHysics/bin/linux/DualSPHysics5.0_linux64: CMakeFiles/DualSPHysics5.0_linux64.dir/JPartNormalData.cpp.o
/home/prashant/Documents/Git/ForkDSPH/DualSPHysics/bin/linux/DualSPHysics5.0_linux64: CMakeFiles/DualSPHysics5.0_linux64.dir/JNormalsMarrone.cpp.o
/home/prashant/Documents/Git/ForkDSPH/DualSPHysics/bin/linux/DualSPHysics5.0_linux64: CMakeFiles/DualSPHysics5.0_linux64.dir/DualSPHysics5.0_linux64_generated_JCellDivGpu_ker.cu.o
/home/prashant/Documents/Git/ForkDSPH/DualSPHysics/bin/linux/DualSPHysics5.0_linux64: CMakeFiles/DualSPHysics5.0_linux64.dir/DualSPHysics5.0_linux64_generated_JCellDivGpuSingle_ker.cu.o
/home/prashant/Documents/Git/ForkDSPH/DualSPHysics/bin/linux/DualSPHysics5.0_linux64: CMakeFiles/DualSPHysics5.0_linux64.dir/DualSPHysics5.0_linux64_generated_JDsPips_ker.cu.o
/home/prashant/Documents/Git/ForkDSPH/DualSPHysics/bin/linux/DualSPHysics5.0_linux64: CMakeFiles/DualSPHysics5.0_linux64.dir/DualSPHysics5.0_linux64_generated_JDsGauge_ker.cu.o
/home/prashant/Documents/Git/ForkDSPH/DualSPHysics/bin/linux/DualSPHysics5.0_linux64: CMakeFiles/DualSPHysics5.0_linux64.dir/DualSPHysics5.0_linux64_generated_JReduSum_ker.cu.o
/home/prashant/Documents/Git/ForkDSPH/DualSPHysics/bin/linux/DualSPHysics5.0_linux64: CMakeFiles/DualSPHysics5.0_linux64.dir/DualSPHysics5.0_linux64_generated_JSphShifting_ker.cu.o
/home/prashant/Documents/Git/ForkDSPH/DualSPHysics/bin/linux/DualSPHysics5.0_linux64: CMakeFiles/DualSPHysics5.0_linux64.dir/DualSPHysics5.0_linux64_generated_JDsAccInput_ker.cu.o
/home/prashant/Documents/Git/ForkDSPH/DualSPHysics/bin/linux/DualSPHysics5.0_linux64: CMakeFiles/DualSPHysics5.0_linux64.dir/DualSPHysics5.0_linux64_generated_JSphGpu_ker.cu.o
/home/prashant/Documents/Git/ForkDSPH/DualSPHysics/bin/linux/DualSPHysics5.0_linux64: CMakeFiles/DualSPHysics5.0_linux64.dir/DualSPHysics5.0_linux64_generated_JSphGpuSimple_ker.cu.o
/home/prashant/Documents/Git/ForkDSPH/DualSPHysics/bin/linux/DualSPHysics5.0_linux64: CMakeFiles/DualSPHysics5.0_linux64.dir/DualSPHysics5.0_linux64_generated_JWaveOrder2_ker.cu.o
/home/prashant/Documents/Git/ForkDSPH/DualSPHysics/bin/linux/DualSPHysics5.0_linux64: CMakeFiles/DualSPHysics5.0_linux64.dir/DualSPHysics5.0_linux64_generated_JRelaxZone_ker.cu.o
/home/prashant/Documents/Git/ForkDSPH/DualSPHysics/bin/linux/DualSPHysics5.0_linux64: CMakeFiles/DualSPHysics5.0_linux64.dir/build.make
/home/prashant/Documents/Git/ForkDSPH/DualSPHysics/bin/linux/DualSPHysics5.0_linux64: /usr/local/cuda-10.1/lib64/libcudart_static.a
/home/prashant/Documents/Git/ForkDSPH/DualSPHysics/bin/linux/DualSPHysics5.0_linux64: /usr/lib/x86_64-linux-gnu/librt.so
/home/prashant/Documents/Git/ForkDSPH/DualSPHysics/bin/linux/DualSPHysics5.0_linux64: CMakeFiles/DualSPHysics5.0_linux64.dir/link.txt
	@$(CMAKE_COMMAND) -E cmake_echo_color --switch=$(COLOR) --green --bold --progress-dir=/home/prashant/Documents/Git/ForkDSPH/DualSPHysics/src/build-source-Imported_Kit-Debug/CMakeFiles --progress-num=$(CMAKE_PROGRESS_102) "Linking CXX executable /home/prashant/Documents/Git/ForkDSPH/DualSPHysics/bin/linux/DualSPHysics5.0_linux64"
	$(CMAKE_COMMAND) -E cmake_link_script CMakeFiles/DualSPHysics5.0_linux64.dir/link.txt --verbose=$(VERBOSE)

# Rule to build all files generated by this target.
CMakeFiles/DualSPHysics5.0_linux64.dir/build: /home/prashant/Documents/Git/ForkDSPH/DualSPHysics/bin/linux/DualSPHysics5.0_linux64

.PHONY : CMakeFiles/DualSPHysics5.0_linux64.dir/build

CMakeFiles/DualSPHysics5.0_linux64.dir/clean:
	$(CMAKE_COMMAND) -P CMakeFiles/DualSPHysics5.0_linux64.dir/cmake_clean.cmake
.PHONY : CMakeFiles/DualSPHysics5.0_linux64.dir/clean

CMakeFiles/DualSPHysics5.0_linux64.dir/depend: CMakeFiles/DualSPHysics5.0_linux64.dir/DualSPHysics5.0_linux64_generated_JCellDivGpu_ker.cu.o
CMakeFiles/DualSPHysics5.0_linux64.dir/depend: CMakeFiles/DualSPHysics5.0_linux64.dir/DualSPHysics5.0_linux64_generated_JCellDivGpuSingle_ker.cu.o
CMakeFiles/DualSPHysics5.0_linux64.dir/depend: CMakeFiles/DualSPHysics5.0_linux64.dir/DualSPHysics5.0_linux64_generated_JDsPips_ker.cu.o
CMakeFiles/DualSPHysics5.0_linux64.dir/depend: CMakeFiles/DualSPHysics5.0_linux64.dir/DualSPHysics5.0_linux64_generated_JDsGauge_ker.cu.o
CMakeFiles/DualSPHysics5.0_linux64.dir/depend: CMakeFiles/DualSPHysics5.0_linux64.dir/DualSPHysics5.0_linux64_generated_JReduSum_ker.cu.o
CMakeFiles/DualSPHysics5.0_linux64.dir/depend: CMakeFiles/DualSPHysics5.0_linux64.dir/DualSPHysics5.0_linux64_generated_JSphShifting_ker.cu.o
CMakeFiles/DualSPHysics5.0_linux64.dir/depend: CMakeFiles/DualSPHysics5.0_linux64.dir/DualSPHysics5.0_linux64_generated_JDsAccInput_ker.cu.o
CMakeFiles/DualSPHysics5.0_linux64.dir/depend: CMakeFiles/DualSPHysics5.0_linux64.dir/DualSPHysics5.0_linux64_generated_JSphGpu_ker.cu.o
CMakeFiles/DualSPHysics5.0_linux64.dir/depend: CMakeFiles/DualSPHysics5.0_linux64.dir/DualSPHysics5.0_linux64_generated_JSphGpuSimple_ker.cu.o
CMakeFiles/DualSPHysics5.0_linux64.dir/depend: CMakeFiles/DualSPHysics5.0_linux64.dir/DualSPHysics5.0_linux64_generated_JWaveOrder2_ker.cu.o
CMakeFiles/DualSPHysics5.0_linux64.dir/depend: CMakeFiles/DualSPHysics5.0_linux64.dir/DualSPHysics5.0_linux64_generated_JRelaxZone_ker.cu.o
	cd /home/prashant/Documents/Git/ForkDSPH/DualSPHysics/src/build-source-Imported_Kit-Debug && $(CMAKE_COMMAND) -E cmake_depends "Unix Makefiles" /home/prashant/Documents/Git/ForkDSPH/DualSPHysics/src/source /home/prashant/Documents/Git/ForkDSPH/DualSPHysics/src/source /home/prashant/Documents/Git/ForkDSPH/DualSPHysics/src/build-source-Imported_Kit-Debug /home/prashant/Documents/Git/ForkDSPH/DualSPHysics/src/build-source-Imported_Kit-Debug /home/prashant/Documents/Git/ForkDSPH/DualSPHysics/src/build-source-Imported_Kit-Debug/CMakeFiles/DualSPHysics5.0_linux64.dir/DependInfo.cmake --color=$(COLOR)
.PHONY : CMakeFiles/DualSPHysics5.0_linux64.dir/depend

