#IncludeRegexLine: ^[ 	]*[#%][ 	]*(include|import)[ 	]*[<"]([^">]+)([">])

#IncludeRegexScan: ^.*$

#IncludeRegexComplain: ^$

#IncludeRegexTransform: 

/home/prashant/Documents/Git/ForkDSPH/DualSPHysics/src/source/DualSphDef.h
TypesDef.h
/home/prashant/Documents/Git/ForkDSPH/DualSPHysics/src/source/TypesDef.h
JParticlesDef.h
/home/prashant/Documents/Git/ForkDSPH/DualSPHysics/src/source/JParticlesDef.h
JPeriodicDef.h
/home/prashant/Documents/Git/ForkDSPH/DualSPHysics/src/source/JPeriodicDef.h
FunSphKernelDef.h
/home/prashant/Documents/Git/ForkDSPH/DualSPHysics/src/source/FunSphKernelDef.h
OmpDefs.h
/home/prashant/Documents/Git/ForkDSPH/DualSPHysics/src/source/OmpDefs.h
algorithm
-
JNumexLibDef.h
/home/prashant/Documents/Git/ForkDSPH/DualSPHysics/src/source/JNumexLibDef.h
JVtkLibDef.h
/home/prashant/Documents/Git/ForkDSPH/DualSPHysics/src/source/JVtkLibDef.h

/home/prashant/Documents/Git/ForkDSPH/DualSPHysics/src/source/FunSphKernelDef.h

/home/prashant/Documents/Git/ForkDSPH/DualSPHysics/src/source/Functions.h
ctime
-
string
-
vector
-
sys/stat.h
-
TypesDef.h
/home/prashant/Documents/Git/ForkDSPH/DualSPHysics/src/source/TypesDef.h

/home/prashant/Documents/Git/ForkDSPH/DualSPHysics/src/source/JArraysGpu.h
JObjectGpu.h
/home/prashant/Documents/Git/ForkDSPH/DualSPHysics/src/source/JObjectGpu.h
DualSphDef.h
/home/prashant/Documents/Git/ForkDSPH/DualSPHysics/src/source/DualSphDef.h

/home/prashant/Documents/Git/ForkDSPH/DualSPHysics/src/source/JCellDivDataCpu.h
DualSphDef.h
/home/prashant/Documents/Git/ForkDSPH/DualSPHysics/src/source/DualSphDef.h

/home/prashant/Documents/Git/ForkDSPH/DualSPHysics/src/source/JCellDivDataGpu.h
DualSphDef.h
/home/prashant/Documents/Git/ForkDSPH/DualSPHysics/src/source/DualSphDef.h
cuda_runtime_api.h
-

/home/prashant/Documents/Git/ForkDSPH/DualSPHysics/src/source/JCellDivGpu.h
DualSphDef.h
/home/prashant/Documents/Git/ForkDSPH/DualSPHysics/src/source/DualSphDef.h
JObjectGpu.h
/home/prashant/Documents/Git/ForkDSPH/DualSPHysics/src/source/JObjectGpu.h
JSphTimersGpu.h
/home/prashant/Documents/Git/ForkDSPH/DualSPHysics/src/source/JSphTimersGpu.h
JLog2.h
/home/prashant/Documents/Git/ForkDSPH/DualSPHysics/src/source/JLog2.h
cmath
-
cstring
-
sstream
-
iostream
-
fstream
-

/home/prashant/Documents/Git/ForkDSPH/DualSPHysics/src/source/JCellDivGpuSingle.h
JCellDivGpu.h
/home/prashant/Documents/Git/ForkDSPH/DualSPHysics/src/source/JCellDivGpu.h
JCellDivDataGpu.h
/home/prashant/Documents/Git/ForkDSPH/DualSPHysics/src/source/JCellDivDataGpu.h

/home/prashant/Documents/Git/ForkDSPH/DualSPHysics/src/source/JCfgRunBase.h
TypesDef.h
/home/prashant/Documents/Git/ForkDSPH/DualSPHysics/src/source/TypesDef.h
Functions.h
/home/prashant/Documents/Git/ForkDSPH/DualSPHysics/src/source/Functions.h
JObject.h
/home/prashant/Documents/Git/ForkDSPH/DualSPHysics/src/source/JObject.h
string
-
sstream
-
iostream
-
fstream
-
cstdlib
-

/home/prashant/Documents/Git/ForkDSPH/DualSPHysics/src/source/JChronoObjects.h
JObject.h
/home/prashant/Documents/Git/ForkDSPH/DualSPHysics/src/source/JObject.h
DualSphDef.h
/home/prashant/Documents/Git/ForkDSPH/DualSPHysics/src/source/DualSphDef.h
string
-
sstream
-
iostream
-
fstream
-
cstdlib
-
vector
-
JChronoObjectsUndef.h
/home/prashant/Documents/Git/ForkDSPH/DualSPHysics/src/source/JChronoObjectsUndef.h

/home/prashant/Documents/Git/ForkDSPH/DualSPHysics/src/source/JChronoObjectsUndef.h

/home/prashant/Documents/Git/ForkDSPH/DualSPHysics/src/source/JDataArrays.h
JObject.h
/home/prashant/Documents/Git/ForkDSPH/DualSPHysics/src/source/JObject.h
TypesDef.h
/home/prashant/Documents/Git/ForkDSPH/DualSPHysics/src/source/TypesDef.h
string
-
vector
-
climits
-

/home/prashant/Documents/Git/ForkDSPH/DualSPHysics/src/source/JDebugSphGpu.h
TypesDef.h
/home/prashant/Documents/Git/ForkDSPH/DualSPHysics/src/source/TypesDef.h
DualSphDef.h
/home/prashant/Documents/Git/ForkDSPH/DualSPHysics/src/source/DualSphDef.h
string
-
cstring
-
cuda_runtime_api.h
-

/home/prashant/Documents/Git/ForkDSPH/DualSPHysics/src/source/JDsFtForcePoints.h
JObject.h
/home/prashant/Documents/Git/ForkDSPH/DualSPHysics/src/source/JObject.h
DualSphDef.h
/home/prashant/Documents/Git/ForkDSPH/DualSPHysics/src/source/DualSphDef.h
string
-
vector
-
cmath
-

/home/prashant/Documents/Git/ForkDSPH/DualSPHysics/src/source/JDsGaugeItem.h
string
-
vector
-
JObject.h
/home/prashant/Documents/Git/ForkDSPH/DualSPHysics/src/source/JObject.h
DualSphDef.h
/home/prashant/Documents/Git/ForkDSPH/DualSPHysics/src/source/DualSphDef.h
JSaveCsv2.h
/home/prashant/Documents/Git/ForkDSPH/DualSPHysics/src/source/JSaveCsv2.h
JCellDivDataCpu.h
/home/prashant/Documents/Git/ForkDSPH/DualSPHysics/src/source/JCellDivDataCpu.h
JCellDivDataGpu.h
/home/prashant/Documents/Git/ForkDSPH/DualSPHysics/src/source/JCellDivDataGpu.h
cuda_runtime_api.h
-

/home/prashant/Documents/Git/ForkDSPH/DualSPHysics/src/source/JDsGaugeSystem.h
string
-
vector
-
JObject.h
/home/prashant/Documents/Git/ForkDSPH/DualSPHysics/src/source/JObject.h
DualSphDef.h
/home/prashant/Documents/Git/ForkDSPH/DualSPHysics/src/source/DualSphDef.h
JDsGaugeItem.h
/home/prashant/Documents/Git/ForkDSPH/DualSPHysics/src/source/JDsGaugeItem.h

/home/prashant/Documents/Git/ForkDSPH/DualSPHysics/src/source/JDsMooredFloatings.h
JObject.h
/home/prashant/Documents/Git/ForkDSPH/DualSPHysics/src/source/JObject.h
DualSphDef.h
/home/prashant/Documents/Git/ForkDSPH/DualSPHysics/src/source/DualSphDef.h
string
-
vector
-
cmath
-

/home/prashant/Documents/Git/ForkDSPH/DualSPHysics/src/source/JDsMotion.h
JObject.h
/home/prashant/Documents/Git/ForkDSPH/DualSPHysics/src/source/JObject.h
DualSphDef.h
/home/prashant/Documents/Git/ForkDSPH/DualSPHysics/src/source/DualSphDef.h
string
-

/home/prashant/Documents/Git/ForkDSPH/DualSPHysics/src/source/JDsOutputTime.h
JObject.h
/home/prashant/Documents/Git/ForkDSPH/DualSPHysics/src/source/JObject.h
string
-
vector
-

/home/prashant/Documents/Git/ForkDSPH/DualSPHysics/src/source/JDsPips.h
JObject.h
/home/prashant/Documents/Git/ForkDSPH/DualSPHysics/src/source/JObject.h
DualSphDef.h
/home/prashant/Documents/Git/ForkDSPH/DualSPHysics/src/source/DualSphDef.h
JCellDivDataCpu.h
/home/prashant/Documents/Git/ForkDSPH/DualSPHysics/src/source/JCellDivDataCpu.h
JCellDivDataGpu.h
/home/prashant/Documents/Git/ForkDSPH/DualSPHysics/src/source/JCellDivDataGpu.h
cuda_runtime_api.h
-
string
-
vector
-

/home/prashant/Documents/Git/ForkDSPH/DualSPHysics/src/source/JDsViscoInput.h
JObject.h
/home/prashant/Documents/Git/ForkDSPH/DualSPHysics/src/source/JObject.h
DualSphDef.h
/home/prashant/Documents/Git/ForkDSPH/DualSPHysics/src/source/DualSphDef.h
JTimer.h
/home/prashant/Documents/Git/ForkDSPH/DualSPHysics/src/source/JTimer.h
string
-
sstream
-
iostream
-
fstream
-
cstdlib
-

/home/prashant/Documents/Git/ForkDSPH/DualSPHysics/src/source/JLinearValue.h
JObject.h
/home/prashant/Documents/Git/ForkDSPH/DualSPHysics/src/source/JObject.h
TypesDef.h
/home/prashant/Documents/Git/ForkDSPH/DualSPHysics/src/source/TypesDef.h
JLinearValueDef.h
/home/prashant/Documents/Git/ForkDSPH/DualSPHysics/src/source/JLinearValueDef.h
string
-
sstream
-
iostream
-
fstream
-
cstdlib
-
string
-

/home/prashant/Documents/Git/ForkDSPH/DualSPHysics/src/source/JLinearValueDef.h

/home/prashant/Documents/Git/ForkDSPH/DualSPHysics/src/source/JLog2.h
JObject.h
/home/prashant/Documents/Git/ForkDSPH/DualSPHysics/src/source/JObject.h
string
-
sstream
-
iostream
-
fstream
-
vector
-

/home/prashant/Documents/Git/ForkDSPH/DualSPHysics/src/source/JMLPistons.h
JObject.h
/home/prashant/Documents/Git/ForkDSPH/DualSPHysics/src/source/JObject.h
DualSphDef.h
/home/prashant/Documents/Git/ForkDSPH/DualSPHysics/src/source/DualSphDef.h
string
-
vector
-

/home/prashant/Documents/Git/ForkDSPH/DualSPHysics/src/source/JMatrix4.h
TypesDef.h
/home/prashant/Documents/Git/ForkDSPH/DualSPHysics/src/source/TypesDef.h
cstdio
-
cmath
-

/home/prashant/Documents/Git/ForkDSPH/DualSPHysics/src/source/JNumexLibDef.h

/home/prashant/Documents/Git/ForkDSPH/DualSPHysics/src/source/JObject.h
string
-

/home/prashant/Documents/Git/ForkDSPH/DualSPHysics/src/source/JObjectGpu.h
JObject.h
/home/prashant/Documents/Git/ForkDSPH/DualSPHysics/src/source/JObject.h
cuda_runtime_api.h
-
string
-

/home/prashant/Documents/Git/ForkDSPH/DualSPHysics/src/source/JParticlesDef.h
string
-

/home/prashant/Documents/Git/ForkDSPH/DualSPHysics/src/source/JPartsLoad4.h
TypesDef.h
/home/prashant/Documents/Git/ForkDSPH/DualSPHysics/src/source/TypesDef.h
JPeriodicDef.h
/home/prashant/Documents/Git/ForkDSPH/DualSPHysics/src/source/JPeriodicDef.h
JObject.h
/home/prashant/Documents/Git/ForkDSPH/DualSPHysics/src/source/JObject.h
cstring
-

/home/prashant/Documents/Git/ForkDSPH/DualSPHysics/src/source/JPeriodicDef.h
TypesDef.h
/home/prashant/Documents/Git/ForkDSPH/DualSPHysics/src/source/TypesDef.h
string
-

/home/prashant/Documents/Git/ForkDSPH/DualSPHysics/src/source/JRelaxZones.h
JObject.h
/home/prashant/Documents/Git/ForkDSPH/DualSPHysics/src/source/JObject.h
DualSphDef.h
/home/prashant/Documents/Git/ForkDSPH/DualSPHysics/src/source/DualSphDef.h
string
-
vector
-

/home/prashant/Documents/Git/ForkDSPH/DualSPHysics/src/source/JSaveCsv2.h
TypesDef.h
/home/prashant/Documents/Git/ForkDSPH/DualSPHysics/src/source/TypesDef.h
JObject.h
/home/prashant/Documents/Git/ForkDSPH/DualSPHysics/src/source/JObject.h
string
-
fstream
-
iostream
-
sstream
-

/home/prashant/Documents/Git/ForkDSPH/DualSPHysics/src/source/JSph.h
DualSphDef.h
/home/prashant/Documents/Git/ForkDSPH/DualSPHysics/src/source/DualSphDef.h
JObject.h
/home/prashant/Documents/Git/ForkDSPH/DualSPHysics/src/source/JObject.h
JSphCfgRun.h
/home/prashant/Documents/Git/ForkDSPH/DualSPHysics/src/source/JSphCfgRun.h
JLog2.h
/home/prashant/Documents/Git/ForkDSPH/DualSPHysics/src/source/JLog2.h
JTimer.h
/home/prashant/Documents/Git/ForkDSPH/DualSPHysics/src/source/JTimer.h
float.h
-
string
-
cmath
-
ctime
-
sstream
-
iostream
-
fstream
-

/home/prashant/Documents/Git/ForkDSPH/DualSPHysics/src/source/JSphCfgRun.h
JCfgRunBase.h
/home/prashant/Documents/Git/ForkDSPH/DualSPHysics/src/source/JCfgRunBase.h
DualSphDef.h
/home/prashant/Documents/Git/ForkDSPH/DualSPHysics/src/source/DualSphDef.h

/home/prashant/Documents/Git/ForkDSPH/DualSPHysics/src/source/JSphGpu.h
DualSphDef.h
/home/prashant/Documents/Git/ForkDSPH/DualSPHysics/src/source/DualSphDef.h
JSphTimersGpu.h
/home/prashant/Documents/Git/ForkDSPH/DualSPHysics/src/source/JSphTimersGpu.h
JCellDivDataGpu.h
/home/prashant/Documents/Git/ForkDSPH/DualSPHysics/src/source/JCellDivDataGpu.h
JSph.h
/home/prashant/Documents/Git/ForkDSPH/DualSPHysics/src/source/JSph.h
string
-

/home/prashant/Documents/Git/ForkDSPH/DualSPHysics/src/source/JSphGpuSimple_ker.h
DualSphDef.h
/home/prashant/Documents/Git/ForkDSPH/DualSPHysics/src/source/DualSphDef.h
cuda_runtime_api.h
-

/home/prashant/Documents/Git/ForkDSPH/DualSPHysics/src/source/JSphGpuSingle.cpp
JSphGpuSingle.h
/home/prashant/Documents/Git/ForkDSPH/DualSPHysics/src/source/JSphGpuSingle.h
JCellDivGpuSingle.h
/home/prashant/Documents/Git/ForkDSPH/DualSPHysics/src/source/JCellDivGpuSingle.h
JArraysGpu.h
/home/prashant/Documents/Git/ForkDSPH/DualSPHysics/src/source/JArraysGpu.h
JSphMk.h
/home/prashant/Documents/Git/ForkDSPH/DualSPHysics/src/source/JSphMk.h
JPartsLoad4.h
/home/prashant/Documents/Git/ForkDSPH/DualSPHysics/src/source/JPartsLoad4.h
Functions.h
/home/prashant/Documents/Git/ForkDSPH/DualSPHysics/src/source/Functions.h
JXml.h
/home/prashant/Documents/Git/ForkDSPH/DualSPHysics/src/source/JXml.h
JDsMotion.h
/home/prashant/Documents/Git/ForkDSPH/DualSPHysics/src/source/JDsMotion.h
JDsViscoInput.h
/home/prashant/Documents/Git/ForkDSPH/DualSPHysics/src/source/JDsViscoInput.h
JWaveGen.h
/home/prashant/Documents/Git/ForkDSPH/DualSPHysics/src/source/JWaveGen.h
JMLPistons.h
/home/prashant/Documents/Git/ForkDSPH/DualSPHysics/src/source/JMLPistons.h
JRelaxZones.h
/home/prashant/Documents/Git/ForkDSPH/DualSPHysics/src/source/JRelaxZones.h
JChronoObjects.h
/home/prashant/Documents/Git/ForkDSPH/DualSPHysics/src/source/JChronoObjects.h
JDsMooredFloatings.h
/home/prashant/Documents/Git/ForkDSPH/DualSPHysics/src/source/JDsMooredFloatings.h
JDsFtForcePoints.h
/home/prashant/Documents/Git/ForkDSPH/DualSPHysics/src/source/JDsFtForcePoints.h
JDsOutputTime.h
/home/prashant/Documents/Git/ForkDSPH/DualSPHysics/src/source/JDsOutputTime.h
JTimeControl.h
/home/prashant/Documents/Git/ForkDSPH/DualSPHysics/src/source/JTimeControl.h
JSphGpu_ker.h
/home/prashant/Documents/Git/ForkDSPH/DualSPHysics/src/source/JSphGpu_ker.h
JSphGpuSimple_ker.h
/home/prashant/Documents/Git/ForkDSPH/DualSPHysics/src/source/JSphGpuSimple_ker.h
JDsGaugeSystem.h
/home/prashant/Documents/Git/ForkDSPH/DualSPHysics/src/source/JDsGaugeSystem.h
JSphInOut.h
/home/prashant/Documents/Git/ForkDSPH/DualSPHysics/src/source/JSphInOut.h
JLinearValue.h
/home/prashant/Documents/Git/ForkDSPH/DualSPHysics/src/source/JLinearValue.h
JDataArrays.h
/home/prashant/Documents/Git/ForkDSPH/DualSPHysics/src/source/JDataArrays.h
JDebugSphGpu.h
/home/prashant/Documents/Git/ForkDSPH/DualSPHysics/src/source/JDebugSphGpu.h
JSphShifting.h
/home/prashant/Documents/Git/ForkDSPH/DualSPHysics/src/source/JSphShifting.h
JDsPips.h
/home/prashant/Documents/Git/ForkDSPH/DualSPHysics/src/source/JDsPips.h
climits
-

/home/prashant/Documents/Git/ForkDSPH/DualSPHysics/src/source/JSphGpuSingle.h
DualSphDef.h
/home/prashant/Documents/Git/ForkDSPH/DualSPHysics/src/source/DualSphDef.h
JSphGpu.h
/home/prashant/Documents/Git/ForkDSPH/DualSPHysics/src/source/JSphGpu.h
string
-

/home/prashant/Documents/Git/ForkDSPH/DualSPHysics/src/source/JSphGpu_ker.h
DualSphDef.h
/home/prashant/Documents/Git/ForkDSPH/DualSPHysics/src/source/DualSphDef.h
JSphTimersGpu.h
/home/prashant/Documents/Git/ForkDSPH/DualSPHysics/src/source/JSphTimersGpu.h
JCellDivDataGpu.h
/home/prashant/Documents/Git/ForkDSPH/DualSPHysics/src/source/JCellDivDataGpu.h
cuda_runtime_api.h
-

/home/prashant/Documents/Git/ForkDSPH/DualSPHysics/src/source/JSphInOut.h
string
-
vector
-
JObject.h
/home/prashant/Documents/Git/ForkDSPH/DualSPHysics/src/source/JObject.h
DualSphDef.h
/home/prashant/Documents/Git/ForkDSPH/DualSPHysics/src/source/DualSphDef.h
cuda_runtime_api.h
-
JSphTimersGpu.h
/home/prashant/Documents/Git/ForkDSPH/DualSPHysics/src/source/JSphTimersGpu.h

/home/prashant/Documents/Git/ForkDSPH/DualSPHysics/src/source/JSphMk.h
string
-
vector
-
JObject.h
/home/prashant/Documents/Git/ForkDSPH/DualSPHysics/src/source/JObject.h
DualSphDef.h
/home/prashant/Documents/Git/ForkDSPH/DualSPHysics/src/source/DualSphDef.h

/home/prashant/Documents/Git/ForkDSPH/DualSPHysics/src/source/JSphShifting.h
JObject.h
/home/prashant/Documents/Git/ForkDSPH/DualSPHysics/src/source/JObject.h
DualSphDef.h
/home/prashant/Documents/Git/ForkDSPH/DualSPHysics/src/source/DualSphDef.h
JMatrix4.h
/home/prashant/Documents/Git/ForkDSPH/DualSPHysics/src/source/JMatrix4.h
cuda_runtime_api.h
-
string
-
vector
-

/home/prashant/Documents/Git/ForkDSPH/DualSPHysics/src/source/JSphTimersGpu.h
JTimerCuda.h
/home/prashant/Documents/Git/ForkDSPH/DualSPHysics/src/source/JTimerCuda.h

/home/prashant/Documents/Git/ForkDSPH/DualSPHysics/src/source/JTimeControl.h
JObject.h
/home/prashant/Documents/Git/ForkDSPH/DualSPHysics/src/source/JObject.h
TypesDef.h
/home/prashant/Documents/Git/ForkDSPH/DualSPHysics/src/source/TypesDef.h
JTimer.h
/home/prashant/Documents/Git/ForkDSPH/DualSPHysics/src/source/JTimer.h
string
-
cstdlib
-
vector
-

/home/prashant/Documents/Git/ForkDSPH/DualSPHysics/src/source/JTimer.h
windows.h
-
cstdio
-
sys/time.h
-

/home/prashant/Documents/Git/ForkDSPH/DualSPHysics/src/source/JTimerCuda.h
cuda_runtime_api.h
-

/home/prashant/Documents/Git/ForkDSPH/DualSPHysics/src/source/JVtkLibDef.h

/home/prashant/Documents/Git/ForkDSPH/DualSPHysics/src/source/JWaveGen.h
DualSphDef.h
/home/prashant/Documents/Git/ForkDSPH/DualSPHysics/src/source/DualSphDef.h
string
-
JWaveGenUndef.h
/home/prashant/Documents/Git/ForkDSPH/DualSPHysics/src/source/JWaveGenUndef.h

/home/prashant/Documents/Git/ForkDSPH/DualSPHysics/src/source/JWaveGenUndef.h

/home/prashant/Documents/Git/ForkDSPH/DualSPHysics/src/source/JXml.h
TypesDef.h
/home/prashant/Documents/Git/ForkDSPH/DualSPHysics/src/source/TypesDef.h
JObject.h
/home/prashant/Documents/Git/ForkDSPH/DualSPHysics/src/source/JObject.h
tinyxml.h
/home/prashant/Documents/Git/ForkDSPH/DualSPHysics/src/source/tinyxml.h
JNumexLibDef.h
/home/prashant/Documents/Git/ForkDSPH/DualSPHysics/src/source/JNumexLibDef.h
string
-

/home/prashant/Documents/Git/ForkDSPH/DualSPHysics/src/source/OmpDefs.h
TypesDef.h
/home/prashant/Documents/Git/ForkDSPH/DualSPHysics/src/source/TypesDef.h
omp.h
-

/home/prashant/Documents/Git/ForkDSPH/DualSPHysics/src/source/TypesDef.h
vector
-

/home/prashant/Documents/Git/ForkDSPH/DualSPHysics/src/source/tinystr.h
assert.h
-
string.h
-

/home/prashant/Documents/Git/ForkDSPH/DualSPHysics/src/source/tinyxml.h
ctype.h
-
stdio.h
-
stdlib.h
-
string.h
-
assert.h
-
string
-
iostream
-
sstream
-
tinystr.h
/home/prashant/Documents/Git/ForkDSPH/DualSPHysics/src/source/tinystr.h

/usr/local/cuda-10.1/include/builtin_types.h
device_types.h
/usr/local/cuda-10.1/include/device_types.h
driver_types.h
/usr/local/cuda-10.1/include/driver_types.h
surface_types.h
/usr/local/cuda-10.1/include/surface_types.h
texture_types.h
/usr/local/cuda-10.1/include/texture_types.h
vector_types.h
/usr/local/cuda-10.1/include/vector_types.h

/usr/local/cuda-10.1/include/crt/host_defines.h

/usr/local/cuda-10.1/include/cuda_device_runtime_api.h
driver_types.h
/usr/local/cuda-10.1/include/driver_types.h
crt/host_defines.h
/usr/local/cuda-10.1/include/crt/host_defines.h

/usr/local/cuda-10.1/include/cuda_runtime_api.h
crt/host_defines.h
/usr/local/cuda-10.1/include/crt/host_defines.h
builtin_types.h
/usr/local/cuda-10.1/include/builtin_types.h
cuda_device_runtime_api.h
/usr/local/cuda-10.1/include/cuda_device_runtime_api.h

/usr/local/cuda-10.1/include/device_types.h
crt/host_defines.h
/usr/local/cuda-10.1/include/crt/host_defines.h

/usr/local/cuda-10.1/include/driver_types.h
crt/host_defines.h
/usr/local/cuda-10.1/include/crt/host_defines.h
vector_types.h
/usr/local/cuda-10.1/include/vector_types.h
limits.h
-
stddef.h
-

/usr/local/cuda-10.1/include/surface_types.h
driver_types.h
/usr/local/cuda-10.1/include/driver_types.h

/usr/local/cuda-10.1/include/texture_types.h
driver_types.h
/usr/local/cuda-10.1/include/driver_types.h

/usr/local/cuda-10.1/include/vector_types.h
crt/host_defines.h
/usr/local/cuda-10.1/include/crt/host_defines.h

