#IncludeRegexLine: ^[ 	]*[#%][ 	]*(include|import)[ 	]*[<"]([^">]+)([">])

#IncludeRegexScan: ^.*$

#IncludeRegexComplain: ^$

#IncludeRegexTransform: 

/home/prashant/Documents/Git/ForkDSPH/DualSPHysics/src/source/DSPHChronoLib.h
TypesDef.h
/home/prashant/Documents/Git/ForkDSPH/DualSPHysics/src/source/TypesDef.h
JChronoData.h
/home/prashant/Documents/Git/ForkDSPH/DualSPHysics/src/source/JChronoData.h
string
-
iostream
-
memory
-

/home/prashant/Documents/Git/ForkDSPH/DualSPHysics/src/source/DSphMoorDyn.h
DualSphDef.h
/home/prashant/Documents/Git/ForkDSPH/DualSPHysics/src/source/DualSphDef.h
TypesDef.h
/home/prashant/Documents/Git/ForkDSPH/DualSPHysics/src/source/TypesDef.h
JLog2.h
/home/prashant/Documents/Git/ForkDSPH/DualSPHysics/src/source/JLog2.h
string
-
DSphMoorDynUndef.h
/home/prashant/Documents/Git/ForkDSPH/DualSPHysics/src/source/DSphMoorDynUndef.h

/home/prashant/Documents/Git/ForkDSPH/DualSPHysics/src/source/DSphMoorDynUndef.h

/home/prashant/Documents/Git/ForkDSPH/DualSPHysics/src/source/DualSphDef.h
TypesDef.h
/home/prashant/Documents/Git/ForkDSPH/DualSPHysics/src/source/TypesDef.h
JParticlesDef.h
/home/prashant/Documents/Git/ForkDSPH/DualSPHysics/src/source/JParticlesDef.h
JPeriodicDef.h
/home/prashant/Documents/Git/ForkDSPH/DualSPHysics/src/source/JPeriodicDef.h
FunSphKernelDef.h
/home/prashant/Documents/Git/ForkDSPH/DualSPHysics/src/source/FunSphKernelDef.h
OmpDefs.h
/home/prashant/Documents/Git/ForkDSPH/DualSPHysics/src/source/OmpDefs.h
algorithm
-
JNumexLibDef.h
/home/prashant/Documents/Git/ForkDSPH/DualSPHysics/src/source/JNumexLibDef.h
JVtkLibDef.h
/home/prashant/Documents/Git/ForkDSPH/DualSPHysics/src/source/JVtkLibDef.h

/home/prashant/Documents/Git/ForkDSPH/DualSPHysics/src/source/FunSphEos.h
TypesDef.h
/home/prashant/Documents/Git/ForkDSPH/DualSPHysics/src/source/TypesDef.h
DualSphDef.h
/home/prashant/Documents/Git/ForkDSPH/DualSPHysics/src/source/DualSphDef.h
cmath
-

/home/prashant/Documents/Git/ForkDSPH/DualSPHysics/src/source/FunSphKernel.h
DualSphDef.h
/home/prashant/Documents/Git/ForkDSPH/DualSPHysics/src/source/DualSphDef.h
FunSphKernelDef.h
/home/prashant/Documents/Git/ForkDSPH/DualSPHysics/src/source/FunSphKernelDef.h
cmath
-

/home/prashant/Documents/Git/ForkDSPH/DualSPHysics/src/source/FunSphKernelDef.h

/home/prashant/Documents/Git/ForkDSPH/DualSPHysics/src/source/FunSphKernelsCfg.cpp
FunSphKernelsCfg.h
/home/prashant/Documents/Git/ForkDSPH/DualSPHysics/src/source/FunSphKernelsCfg.h
FunSphKernel.h
/home/prashant/Documents/Git/ForkDSPH/DualSPHysics/src/source/FunSphKernel.h
Functions.h
/home/prashant/Documents/Git/ForkDSPH/DualSPHysics/src/source/Functions.h

/home/prashant/Documents/Git/ForkDSPH/DualSPHysics/src/source/FunSphKernelsCfg.h
FunSphKernelDef.h
/home/prashant/Documents/Git/ForkDSPH/DualSPHysics/src/source/FunSphKernelDef.h
DualSphDef.h
/home/prashant/Documents/Git/ForkDSPH/DualSPHysics/src/source/DualSphDef.h
vector
-

/home/prashant/Documents/Git/ForkDSPH/DualSPHysics/src/source/Functions.cpp
Functions.h
/home/prashant/Documents/Git/ForkDSPH/DualSPHysics/src/source/Functions.h
limits
-
cstdio
-
cstdlib
-
cstring
-
cfloat
-
cmath
-
climits
-
stdarg.h
-
algorithm
-
fstream
-
climits
-
iostream
-
direct.h
-
unistd.h
-

/home/prashant/Documents/Git/ForkDSPH/DualSPHysics/src/source/Functions.h
ctime
-
string
-
vector
-
sys/stat.h
-
TypesDef.h
/home/prashant/Documents/Git/ForkDSPH/DualSPHysics/src/source/TypesDef.h

/home/prashant/Documents/Git/ForkDSPH/DualSPHysics/src/source/FunctionsCuda.cpp
FunctionsCuda.h
/home/prashant/Documents/Git/ForkDSPH/DualSPHysics/src/source/FunctionsCuda.h
Functions.h
/home/prashant/Documents/Git/ForkDSPH/DualSPHysics/src/source/Functions.h
algorithm
-

/home/prashant/Documents/Git/ForkDSPH/DualSPHysics/src/source/FunctionsCuda.h
string
-
vector
-
cuda_runtime_api.h
-
TypesDef.h
/home/prashant/Documents/Git/ForkDSPH/DualSPHysics/src/source/TypesDef.h

/home/prashant/Documents/Git/ForkDSPH/DualSPHysics/src/source/FunctionsGeo3d.cpp
FunctionsGeo3d.h
/home/prashant/Documents/Git/ForkDSPH/DualSPHysics/src/source/FunctionsGeo3d.h
FunctionsMath.h
/home/prashant/Documents/Git/ForkDSPH/DualSPHysics/src/source/FunctionsMath.h
Functions.h
/home/prashant/Documents/Git/ForkDSPH/DualSPHysics/src/source/Functions.h
cstdio
-
climits
-
algorithm
-

/home/prashant/Documents/Git/ForkDSPH/DualSPHysics/src/source/FunctionsGeo3d.h
TypesDef.h
/home/prashant/Documents/Git/ForkDSPH/DualSPHysics/src/source/TypesDef.h
cstdlib
-
cmath
-
cfloat
-
vector
-

/home/prashant/Documents/Git/ForkDSPH/DualSPHysics/src/source/FunctionsMath.h
TypesDef.h
/home/prashant/Documents/Git/ForkDSPH/DualSPHysics/src/source/TypesDef.h
cstdlib
-
cmath
-
cfloat
-

/home/prashant/Documents/Git/ForkDSPH/DualSPHysics/src/source/JAppInfo.cpp
cstdio
-
JAppInfo.h
/home/prashant/Documents/Git/ForkDSPH/DualSPHysics/src/source/JAppInfo.h
Functions.h
/home/prashant/Documents/Git/ForkDSPH/DualSPHysics/src/source/Functions.h
JLog2.h
/home/prashant/Documents/Git/ForkDSPH/DualSPHysics/src/source/JLog2.h

/home/prashant/Documents/Git/ForkDSPH/DualSPHysics/src/source/JAppInfo.h
JAppInfoDef.h
/home/prashant/Documents/Git/ForkDSPH/DualSPHysics/src/source/JAppInfoDef.h
JObject.h
/home/prashant/Documents/Git/ForkDSPH/DualSPHysics/src/source/JObject.h
string
-

/home/prashant/Documents/Git/ForkDSPH/DualSPHysics/src/source/JAppInfoDef.h

/home/prashant/Documents/Git/ForkDSPH/DualSPHysics/src/source/JArraysCpu.cpp
JArraysCpu.h
/home/prashant/Documents/Git/ForkDSPH/DualSPHysics/src/source/JArraysCpu.h
Functions.h
/home/prashant/Documents/Git/ForkDSPH/DualSPHysics/src/source/Functions.h
cstdio
-
algorithm
-

/home/prashant/Documents/Git/ForkDSPH/DualSPHysics/src/source/JArraysCpu.h
JObject.h
/home/prashant/Documents/Git/ForkDSPH/DualSPHysics/src/source/JObject.h
DualSphDef.h
/home/prashant/Documents/Git/ForkDSPH/DualSPHysics/src/source/DualSphDef.h

/home/prashant/Documents/Git/ForkDSPH/DualSPHysics/src/source/JArraysGpu.cpp
JArraysGpu.h
/home/prashant/Documents/Git/ForkDSPH/DualSPHysics/src/source/JArraysGpu.h
Functions.h
/home/prashant/Documents/Git/ForkDSPH/DualSPHysics/src/source/Functions.h
cstdio
-
algorithm
-

/home/prashant/Documents/Git/ForkDSPH/DualSPHysics/src/source/JArraysGpu.h
JObjectGpu.h
/home/prashant/Documents/Git/ForkDSPH/DualSPHysics/src/source/JObjectGpu.h
DualSphDef.h
/home/prashant/Documents/Git/ForkDSPH/DualSPHysics/src/source/DualSphDef.h

/home/prashant/Documents/Git/ForkDSPH/DualSPHysics/src/source/JBinaryData.cpp
JBinaryData.h
/home/prashant/Documents/Git/ForkDSPH/DualSPHysics/src/source/JBinaryData.h
Functions.h
/home/prashant/Documents/Git/ForkDSPH/DualSPHysics/src/source/Functions.h
fstream
-
cmath
-
cstring
-
cstdlib
-
iostream
-
sstream
-
algorithm
-

/home/prashant/Documents/Git/ForkDSPH/DualSPHysics/src/source/JBinaryData.h
JObject.h
/home/prashant/Documents/Git/ForkDSPH/DualSPHysics/src/source/JObject.h
TypesDef.h
/home/prashant/Documents/Git/ForkDSPH/DualSPHysics/src/source/TypesDef.h
string
-
vector
-
fstream
-

/home/prashant/Documents/Git/ForkDSPH/DualSPHysics/src/source/JCaseCtes.cpp
JCaseCtes.h
/home/prashant/Documents/Git/ForkDSPH/DualSPHysics/src/source/JCaseCtes.h
JXml.h
/home/prashant/Documents/Git/ForkDSPH/DualSPHysics/src/source/JXml.h
Functions.h
/home/prashant/Documents/Git/ForkDSPH/DualSPHysics/src/source/Functions.h
cmath
-
algorithm
-

/home/prashant/Documents/Git/ForkDSPH/DualSPHysics/src/source/JCaseCtes.h
string
-
vector
-
JObject.h
/home/prashant/Documents/Git/ForkDSPH/DualSPHysics/src/source/JObject.h
TypesDef.h
/home/prashant/Documents/Git/ForkDSPH/DualSPHysics/src/source/TypesDef.h

/home/prashant/Documents/Git/ForkDSPH/DualSPHysics/src/source/JCaseEParms.cpp
JCaseEParms.h
/home/prashant/Documents/Git/ForkDSPH/DualSPHysics/src/source/JCaseEParms.h
Functions.h
/home/prashant/Documents/Git/ForkDSPH/DualSPHysics/src/source/Functions.h
JXml.h
/home/prashant/Documents/Git/ForkDSPH/DualSPHysics/src/source/JXml.h
algorithm
-

/home/prashant/Documents/Git/ForkDSPH/DualSPHysics/src/source/JCaseEParms.h
string
-
vector
-
JObject.h
/home/prashant/Documents/Git/ForkDSPH/DualSPHysics/src/source/JObject.h
TypesDef.h
/home/prashant/Documents/Git/ForkDSPH/DualSPHysics/src/source/TypesDef.h

/home/prashant/Documents/Git/ForkDSPH/DualSPHysics/src/source/JCaseParts.cpp
JCaseParts.h
/home/prashant/Documents/Git/ForkDSPH/DualSPHysics/src/source/JCaseParts.h
JCaseProperties.h
/home/prashant/Documents/Git/ForkDSPH/DualSPHysics/src/source/JCaseProperties.h
JRangeFilter.h
/home/prashant/Documents/Git/ForkDSPH/DualSPHysics/src/source/JRangeFilter.h
Functions.h
/home/prashant/Documents/Git/ForkDSPH/DualSPHysics/src/source/Functions.h
JXml.h
/home/prashant/Documents/Git/ForkDSPH/DualSPHysics/src/source/JXml.h
JLinearValue.h
/home/prashant/Documents/Git/ForkDSPH/DualSPHysics/src/source/JLinearValue.h
algorithm
-
cfloat
-

/home/prashant/Documents/Git/ForkDSPH/DualSPHysics/src/source/JCaseParts.h
JObject.h
/home/prashant/Documents/Git/ForkDSPH/DualSPHysics/src/source/JObject.h
TypesDef.h
/home/prashant/Documents/Git/ForkDSPH/DualSPHysics/src/source/TypesDef.h
JCasePartsDef.h
/home/prashant/Documents/Git/ForkDSPH/DualSPHysics/src/source/JCasePartsDef.h
JParticlesDef.h
/home/prashant/Documents/Git/ForkDSPH/DualSPHysics/src/source/JParticlesDef.h
string
-
vector
-
cstdlib
-
cmath
-

/home/prashant/Documents/Git/ForkDSPH/DualSPHysics/src/source/JCasePartsDef.h

/home/prashant/Documents/Git/ForkDSPH/DualSPHysics/src/source/JCaseProperties.cpp
JCaseProperties.h
/home/prashant/Documents/Git/ForkDSPH/DualSPHysics/src/source/JCaseProperties.h
Functions.h
/home/prashant/Documents/Git/ForkDSPH/DualSPHysics/src/source/Functions.h
JXml.h
/home/prashant/Documents/Git/ForkDSPH/DualSPHysics/src/source/JXml.h
JRangeFilter.h
/home/prashant/Documents/Git/ForkDSPH/DualSPHysics/src/source/JRangeFilter.h
climits
-
algorithm
-

/home/prashant/Documents/Git/ForkDSPH/DualSPHysics/src/source/JCaseProperties.h
string
-
vector
-
JObject.h
/home/prashant/Documents/Git/ForkDSPH/DualSPHysics/src/source/JObject.h
TypesDef.h
/home/prashant/Documents/Git/ForkDSPH/DualSPHysics/src/source/TypesDef.h

/home/prashant/Documents/Git/ForkDSPH/DualSPHysics/src/source/JCaseUserVars.cpp
JCaseUserVars.h
/home/prashant/Documents/Git/ForkDSPH/DualSPHysics/src/source/JCaseUserVars.h
Functions.h
/home/prashant/Documents/Git/ForkDSPH/DualSPHysics/src/source/Functions.h
JNumexLib.h
/home/prashant/Documents/Git/ForkDSPH/DualSPHysics/src/source/JNumexLib.h
JXml.h
/home/prashant/Documents/Git/ForkDSPH/DualSPHysics/src/source/JXml.h
climits
-
algorithm
-

/home/prashant/Documents/Git/ForkDSPH/DualSPHysics/src/source/JCaseUserVars.h
JObject.h
/home/prashant/Documents/Git/ForkDSPH/DualSPHysics/src/source/JObject.h
TypesDef.h
/home/prashant/Documents/Git/ForkDSPH/DualSPHysics/src/source/TypesDef.h
JNumexLibDef.h
/home/prashant/Documents/Git/ForkDSPH/DualSPHysics/src/source/JNumexLibDef.h
vector
-

/home/prashant/Documents/Git/ForkDSPH/DualSPHysics/src/source/JCaseVtkOut.cpp
JCaseVtkOut.h
/home/prashant/Documents/Git/ForkDSPH/DualSPHysics/src/source/JCaseVtkOut.h
Functions.h
/home/prashant/Documents/Git/ForkDSPH/DualSPHysics/src/source/Functions.h
JRangeFilter.h
/home/prashant/Documents/Git/ForkDSPH/DualSPHysics/src/source/JRangeFilter.h
JXml.h
/home/prashant/Documents/Git/ForkDSPH/DualSPHysics/src/source/JXml.h
climits
-

/home/prashant/Documents/Git/ForkDSPH/DualSPHysics/src/source/JCaseVtkOut.h
JObject.h
/home/prashant/Documents/Git/ForkDSPH/DualSPHysics/src/source/JObject.h
TypesDef.h
/home/prashant/Documents/Git/ForkDSPH/DualSPHysics/src/source/TypesDef.h
vector
-

/home/prashant/Documents/Git/ForkDSPH/DualSPHysics/src/source/JCellDivCpu.cpp
JCellDivCpu.h
/home/prashant/Documents/Git/ForkDSPH/DualSPHysics/src/source/JCellDivCpu.h
Functions.h
/home/prashant/Documents/Git/ForkDSPH/DualSPHysics/src/source/Functions.h
cfloat
-
climits
-

/home/prashant/Documents/Git/ForkDSPH/DualSPHysics/src/source/JCellDivCpu.h
DualSphDef.h
/home/prashant/Documents/Git/ForkDSPH/DualSPHysics/src/source/DualSphDef.h
JObject.h
/home/prashant/Documents/Git/ForkDSPH/DualSPHysics/src/source/JObject.h
JSphTimersCpu.h
/home/prashant/Documents/Git/ForkDSPH/DualSPHysics/src/source/JSphTimersCpu.h
JCellDivDataCpu.h
/home/prashant/Documents/Git/ForkDSPH/DualSPHysics/src/source/JCellDivDataCpu.h
JLog2.h
/home/prashant/Documents/Git/ForkDSPH/DualSPHysics/src/source/JLog2.h
cmath
-
cstring
-
sstream
-
iostream
-
fstream
-

/home/prashant/Documents/Git/ForkDSPH/DualSPHysics/src/source/JCellDivCpuSingle.cpp
JCellDivCpuSingle.h
/home/prashant/Documents/Git/ForkDSPH/DualSPHysics/src/source/JCellDivCpuSingle.h
Functions.h
/home/prashant/Documents/Git/ForkDSPH/DualSPHysics/src/source/Functions.h
climits
-

/home/prashant/Documents/Git/ForkDSPH/DualSPHysics/src/source/JCellDivCpuSingle.h
JCellDivCpu.h
/home/prashant/Documents/Git/ForkDSPH/DualSPHysics/src/source/JCellDivCpu.h

/home/prashant/Documents/Git/ForkDSPH/DualSPHysics/src/source/JCellDivDataCpu.h
DualSphDef.h
/home/prashant/Documents/Git/ForkDSPH/DualSPHysics/src/source/DualSphDef.h

/home/prashant/Documents/Git/ForkDSPH/DualSPHysics/src/source/JCellDivDataGpu.h
DualSphDef.h
/home/prashant/Documents/Git/ForkDSPH/DualSPHysics/src/source/DualSphDef.h
cuda_runtime_api.h
-

/home/prashant/Documents/Git/ForkDSPH/DualSPHysics/src/source/JCellDivGpu.cpp
JCellDivGpu.h
/home/prashant/Documents/Git/ForkDSPH/DualSPHysics/src/source/JCellDivGpu.h
JCellDivGpu_ker.h
/home/prashant/Documents/Git/ForkDSPH/DualSPHysics/src/source/JCellDivGpu_ker.h
Functions.h
/home/prashant/Documents/Git/ForkDSPH/DualSPHysics/src/source/Functions.h

/home/prashant/Documents/Git/ForkDSPH/DualSPHysics/src/source/JCellDivGpu.h
DualSphDef.h
/home/prashant/Documents/Git/ForkDSPH/DualSPHysics/src/source/DualSphDef.h
JObjectGpu.h
/home/prashant/Documents/Git/ForkDSPH/DualSPHysics/src/source/JObjectGpu.h
JSphTimersGpu.h
/home/prashant/Documents/Git/ForkDSPH/DualSPHysics/src/source/JSphTimersGpu.h
JLog2.h
/home/prashant/Documents/Git/ForkDSPH/DualSPHysics/src/source/JLog2.h
cmath
-
cstring
-
sstream
-
iostream
-
fstream
-

/home/prashant/Documents/Git/ForkDSPH/DualSPHysics/src/source/JCellDivGpuSingle.cpp
JCellDivGpuSingle.h
/home/prashant/Documents/Git/ForkDSPH/DualSPHysics/src/source/JCellDivGpuSingle.h
JCellDivGpuSingle_ker.h
/home/prashant/Documents/Git/ForkDSPH/DualSPHysics/src/source/JCellDivGpuSingle_ker.h
Functions.h
/home/prashant/Documents/Git/ForkDSPH/DualSPHysics/src/source/Functions.h
climits
-

/home/prashant/Documents/Git/ForkDSPH/DualSPHysics/src/source/JCellDivGpuSingle.h
JCellDivGpu.h
/home/prashant/Documents/Git/ForkDSPH/DualSPHysics/src/source/JCellDivGpu.h
JCellDivDataGpu.h
/home/prashant/Documents/Git/ForkDSPH/DualSPHysics/src/source/JCellDivDataGpu.h

/home/prashant/Documents/Git/ForkDSPH/DualSPHysics/src/source/JCellDivGpuSingle_ker.h
JCellDivGpu_ker.h
/home/prashant/Documents/Git/ForkDSPH/DualSPHysics/src/source/JCellDivGpu_ker.h

/home/prashant/Documents/Git/ForkDSPH/DualSPHysics/src/source/JCellDivGpu_ker.h
DualSphDef.h
/home/prashant/Documents/Git/ForkDSPH/DualSPHysics/src/source/DualSphDef.h
cuda_runtime_api.h
-

/home/prashant/Documents/Git/ForkDSPH/DualSPHysics/src/source/JCellSearch_inline.h
JCellDivDataCpu.h
/home/prashant/Documents/Git/ForkDSPH/DualSPHysics/src/source/JCellDivDataCpu.h

/home/prashant/Documents/Git/ForkDSPH/DualSPHysics/src/source/JCfgRunBase.cpp
JCfgRunBase.h
/home/prashant/Documents/Git/ForkDSPH/DualSPHysics/src/source/JCfgRunBase.h
JAppInfo.h
/home/prashant/Documents/Git/ForkDSPH/DualSPHysics/src/source/JAppInfo.h
JDsphConfig.h
/home/prashant/Documents/Git/ForkDSPH/DualSPHysics/src/source/JDsphConfig.h

/home/prashant/Documents/Git/ForkDSPH/DualSPHysics/src/source/JCfgRunBase.h
TypesDef.h
/home/prashant/Documents/Git/ForkDSPH/DualSPHysics/src/source/TypesDef.h
Functions.h
/home/prashant/Documents/Git/ForkDSPH/DualSPHysics/src/source/Functions.h
JObject.h
/home/prashant/Documents/Git/ForkDSPH/DualSPHysics/src/source/JObject.h
string
-
sstream
-
iostream
-
fstream
-
cstdlib
-

/home/prashant/Documents/Git/ForkDSPH/DualSPHysics/src/source/JChronoData.h
string
-
vector
-
cstdlib
-
cmath
-
TypesDef.h
/home/prashant/Documents/Git/ForkDSPH/DualSPHysics/src/source/TypesDef.h

/home/prashant/Documents/Git/ForkDSPH/DualSPHysics/src/source/JChronoObjects.cpp
JChronoObjects.h
/home/prashant/Documents/Git/ForkDSPH/DualSPHysics/src/source/JChronoObjects.h
DSPHChronoLib.h
/home/prashant/Documents/Git/ForkDSPH/DualSPHysics/src/source/DSPHChronoLib.h
JChronoData.h
/home/prashant/Documents/Git/ForkDSPH/DualSPHysics/src/source/JChronoData.h
Functions.h
/home/prashant/Documents/Git/ForkDSPH/DualSPHysics/src/source/Functions.h
FunctionsGeo3d.h
/home/prashant/Documents/Git/ForkDSPH/DualSPHysics/src/source/FunctionsGeo3d.h
JLog2.h
/home/prashant/Documents/Git/ForkDSPH/DualSPHysics/src/source/JLog2.h
JXml.h
/home/prashant/Documents/Git/ForkDSPH/DualSPHysics/src/source/JXml.h
JCaseParts.h
/home/prashant/Documents/Git/ForkDSPH/DualSPHysics/src/source/JCaseParts.h
JAppInfo.h
/home/prashant/Documents/Git/ForkDSPH/DualSPHysics/src/source/JAppInfo.h
JSaveCsv2.h
/home/prashant/Documents/Git/ForkDSPH/DualSPHysics/src/source/JSaveCsv2.h
JVtkLib.h
/home/prashant/Documents/Git/ForkDSPH/DualSPHysics/src/source/JVtkLib.h
JRangeFilter.h
/home/prashant/Documents/Git/ForkDSPH/DualSPHysics/src/source/JRangeFilter.h
JCaseVtkOut.h
/home/prashant/Documents/Git/ForkDSPH/DualSPHysics/src/source/JCaseVtkOut.h
JSphMk.h
/home/prashant/Documents/Git/ForkDSPH/DualSPHysics/src/source/JSphMk.h
cstring
-
cfloat
-
climits
-
algorithm
-

/home/prashant/Documents/Git/ForkDSPH/DualSPHysics/src/source/JChronoObjects.h
JObject.h
/home/prashant/Documents/Git/ForkDSPH/DualSPHysics/src/source/JObject.h
DualSphDef.h
/home/prashant/Documents/Git/ForkDSPH/DualSPHysics/src/source/DualSphDef.h
string
-
sstream
-
iostream
-
fstream
-
cstdlib
-
vector
-
JChronoObjectsUndef.h
/home/prashant/Documents/Git/ForkDSPH/DualSPHysics/src/source/JChronoObjectsUndef.h

/home/prashant/Documents/Git/ForkDSPH/DualSPHysics/src/source/JChronoObjectsUndef.h

/home/prashant/Documents/Git/ForkDSPH/DualSPHysics/src/source/JDataArrays.cpp
JDataArrays.h
/home/prashant/Documents/Git/ForkDSPH/DualSPHysics/src/source/JDataArrays.h
JException.h
/home/prashant/Documents/Git/ForkDSPH/DualSPHysics/src/source/JException.h
Functions.h
/home/prashant/Documents/Git/ForkDSPH/DualSPHysics/src/source/Functions.h
cstring
-
cstdio
-

/home/prashant/Documents/Git/ForkDSPH/DualSPHysics/src/source/JDataArrays.h
JObject.h
/home/prashant/Documents/Git/ForkDSPH/DualSPHysics/src/source/JObject.h
TypesDef.h
/home/prashant/Documents/Git/ForkDSPH/DualSPHysics/src/source/TypesDef.h
string
-
vector
-
climits
-

/home/prashant/Documents/Git/ForkDSPH/DualSPHysics/src/source/JDebugSphGpu.cpp
JDebugSphGpu.h
/home/prashant/Documents/Git/ForkDSPH/DualSPHysics/src/source/JDebugSphGpu.h
JAppInfo.h
/home/prashant/Documents/Git/ForkDSPH/DualSPHysics/src/source/JAppInfo.h
JLog2.h
/home/prashant/Documents/Git/ForkDSPH/DualSPHysics/src/source/JLog2.h
JException.h
/home/prashant/Documents/Git/ForkDSPH/DualSPHysics/src/source/JException.h
Functions.h
/home/prashant/Documents/Git/ForkDSPH/DualSPHysics/src/source/Functions.h
FunctionsCuda.h
/home/prashant/Documents/Git/ForkDSPH/DualSPHysics/src/source/FunctionsCuda.h
JVtkLib.h
/home/prashant/Documents/Git/ForkDSPH/DualSPHysics/src/source/JVtkLib.h
JDataArrays.h
/home/prashant/Documents/Git/ForkDSPH/DualSPHysics/src/source/JDataArrays.h
JSphGpuSingle.h
/home/prashant/Documents/Git/ForkDSPH/DualSPHysics/src/source/JSphGpuSingle.h

/home/prashant/Documents/Git/ForkDSPH/DualSPHysics/src/source/JDebugSphGpu.h
TypesDef.h
/home/prashant/Documents/Git/ForkDSPH/DualSPHysics/src/source/TypesDef.h
DualSphDef.h
/home/prashant/Documents/Git/ForkDSPH/DualSPHysics/src/source/DualSphDef.h
string
-
cstring
-
cuda_runtime_api.h
-

/home/prashant/Documents/Git/ForkDSPH/DualSPHysics/src/source/JDsAccInput.cpp
JDsAccInput.h
/home/prashant/Documents/Git/ForkDSPH/DualSPHysics/src/source/JDsAccInput.h
JLog2.h
/home/prashant/Documents/Git/ForkDSPH/DualSPHysics/src/source/JLog2.h
JXml.h
/home/prashant/Documents/Git/ForkDSPH/DualSPHysics/src/source/JXml.h
Functions.h
/home/prashant/Documents/Git/ForkDSPH/DualSPHysics/src/source/Functions.h
JLinearValue.h
/home/prashant/Documents/Git/ForkDSPH/DualSPHysics/src/source/JLinearValue.h
JRangeFilter.h
/home/prashant/Documents/Git/ForkDSPH/DualSPHysics/src/source/JRangeFilter.h
JSphMk.h
/home/prashant/Documents/Git/ForkDSPH/DualSPHysics/src/source/JSphMk.h
JDsAccInput_ker.h
/home/prashant/Documents/Git/ForkDSPH/DualSPHysics/src/source/JDsAccInput_ker.h
climits
-
cfloat
-

/home/prashant/Documents/Git/ForkDSPH/DualSPHysics/src/source/JDsAccInput.h
JObject.h
/home/prashant/Documents/Git/ForkDSPH/DualSPHysics/src/source/JObject.h
DualSphDef.h
/home/prashant/Documents/Git/ForkDSPH/DualSPHysics/src/source/DualSphDef.h
cuda_runtime_api.h
-
string
-
vector
-

/home/prashant/Documents/Git/ForkDSPH/DualSPHysics/src/source/JDsAccInput_ker.h
DualSphDef.h
/home/prashant/Documents/Git/ForkDSPH/DualSPHysics/src/source/DualSphDef.h
cuda_runtime_api.h
-

/home/prashant/Documents/Git/ForkDSPH/DualSPHysics/src/source/JDsDamping.cpp
JDsDamping.h
/home/prashant/Documents/Git/ForkDSPH/DualSPHysics/src/source/JDsDamping.h
JLog2.h
/home/prashant/Documents/Git/ForkDSPH/DualSPHysics/src/source/JLog2.h
JAppInfo.h
/home/prashant/Documents/Git/ForkDSPH/DualSPHysics/src/source/JAppInfo.h
JXml.h
/home/prashant/Documents/Git/ForkDSPH/DualSPHysics/src/source/JXml.h
Functions.h
/home/prashant/Documents/Git/ForkDSPH/DualSPHysics/src/source/Functions.h
FunctionsGeo3d.h
/home/prashant/Documents/Git/ForkDSPH/DualSPHysics/src/source/FunctionsGeo3d.h
JVtkLib.h
/home/prashant/Documents/Git/ForkDSPH/DualSPHysics/src/source/JVtkLib.h
cfloat
-
algorithm
-

/home/prashant/Documents/Git/ForkDSPH/DualSPHysics/src/source/JDsDamping.h
string
-
vector
-
JObject.h
/home/prashant/Documents/Git/ForkDSPH/DualSPHysics/src/source/JObject.h
DualSphDef.h
/home/prashant/Documents/Git/ForkDSPH/DualSPHysics/src/source/DualSphDef.h

/home/prashant/Documents/Git/ForkDSPH/DualSPHysics/src/source/JDsFixedDt.cpp
JDsFixedDt.h
/home/prashant/Documents/Git/ForkDSPH/DualSPHysics/src/source/JDsFixedDt.h
Functions.h
/home/prashant/Documents/Git/ForkDSPH/DualSPHysics/src/source/Functions.h
JReadDatafile.h
/home/prashant/Documents/Git/ForkDSPH/DualSPHysics/src/source/JReadDatafile.h
cstring
-
cfloat
-
algorithm
-

/home/prashant/Documents/Git/ForkDSPH/DualSPHysics/src/source/JDsFixedDt.h
JObject.h
/home/prashant/Documents/Git/ForkDSPH/DualSPHysics/src/source/JObject.h
DualSphDef.h
/home/prashant/Documents/Git/ForkDSPH/DualSPHysics/src/source/DualSphDef.h
JTimer.h
/home/prashant/Documents/Git/ForkDSPH/DualSPHysics/src/source/JTimer.h
string
-
sstream
-
iostream
-
fstream
-
cstdlib
-

/home/prashant/Documents/Git/ForkDSPH/DualSPHysics/src/source/JDsFtForcePoints.cpp
JDsFtForcePoints.h
/home/prashant/Documents/Git/ForkDSPH/DualSPHysics/src/source/JDsFtForcePoints.h
JLog2.h
/home/prashant/Documents/Git/ForkDSPH/DualSPHysics/src/source/JLog2.h
Functions.h
/home/prashant/Documents/Git/ForkDSPH/DualSPHysics/src/source/Functions.h
FunctionsGeo3d.h
/home/prashant/Documents/Git/ForkDSPH/DualSPHysics/src/source/FunctionsGeo3d.h
JDataArrays.h
/home/prashant/Documents/Git/ForkDSPH/DualSPHysics/src/source/JDataArrays.h
JVtkLib.h
/home/prashant/Documents/Git/ForkDSPH/DualSPHysics/src/source/JVtkLib.h
JSaveCsv2.h
/home/prashant/Documents/Git/ForkDSPH/DualSPHysics/src/source/JSaveCsv2.h
JAppInfo.h
/home/prashant/Documents/Git/ForkDSPH/DualSPHysics/src/source/JAppInfo.h
JSphMk.h
/home/prashant/Documents/Git/ForkDSPH/DualSPHysics/src/source/JSphMk.h
cstdio
-
cstdlib
-
cmath
-
climits
-
cfloat
-
algorithm
-

/home/prashant/Documents/Git/ForkDSPH/DualSPHysics/src/source/JDsFtForcePoints.h
JObject.h
/home/prashant/Documents/Git/ForkDSPH/DualSPHysics/src/source/JObject.h
DualSphDef.h
/home/prashant/Documents/Git/ForkDSPH/DualSPHysics/src/source/DualSphDef.h
string
-
vector
-
cmath
-

/home/prashant/Documents/Git/ForkDSPH/DualSPHysics/src/source/JDsGaugeItem.cpp
JDsGaugeItem.h
/home/prashant/Documents/Git/ForkDSPH/DualSPHysics/src/source/JDsGaugeItem.h
JCellSearch_inline.h
/home/prashant/Documents/Git/ForkDSPH/DualSPHysics/src/source/JCellSearch_inline.h
FunSphKernel.h
/home/prashant/Documents/Git/ForkDSPH/DualSPHysics/src/source/FunSphKernel.h
FunSphEos.h
/home/prashant/Documents/Git/ForkDSPH/DualSPHysics/src/source/FunSphEos.h
JException.h
/home/prashant/Documents/Git/ForkDSPH/DualSPHysics/src/source/JException.h
JLog2.h
/home/prashant/Documents/Git/ForkDSPH/DualSPHysics/src/source/JLog2.h
JSaveCsv2.h
/home/prashant/Documents/Git/ForkDSPH/DualSPHysics/src/source/JSaveCsv2.h
JAppInfo.h
/home/prashant/Documents/Git/ForkDSPH/DualSPHysics/src/source/JAppInfo.h
Functions.h
/home/prashant/Documents/Git/ForkDSPH/DualSPHysics/src/source/Functions.h
FunctionsGeo3d.h
/home/prashant/Documents/Git/ForkDSPH/DualSPHysics/src/source/FunctionsGeo3d.h
JDataArrays.h
/home/prashant/Documents/Git/ForkDSPH/DualSPHysics/src/source/JDataArrays.h
JVtkLib.h
/home/prashant/Documents/Git/ForkDSPH/DualSPHysics/src/source/JVtkLib.h
FunctionsCuda.h
/home/prashant/Documents/Git/ForkDSPH/DualSPHysics/src/source/FunctionsCuda.h
JDsGauge_ker.h
/home/prashant/Documents/Git/ForkDSPH/DualSPHysics/src/source/JDsGauge_ker.h
JReduSum_ker.h
/home/prashant/Documents/Git/ForkDSPH/DualSPHysics/src/source/JReduSum_ker.h
cmath
-
cfloat
-
climits
-
algorithm
-

/home/prashant/Documents/Git/ForkDSPH/DualSPHysics/src/source/JDsGaugeItem.h
string
-
vector
-
JObject.h
/home/prashant/Documents/Git/ForkDSPH/DualSPHysics/src/source/JObject.h
DualSphDef.h
/home/prashant/Documents/Git/ForkDSPH/DualSPHysics/src/source/DualSphDef.h
JSaveCsv2.h
/home/prashant/Documents/Git/ForkDSPH/DualSPHysics/src/source/JSaveCsv2.h
JCellDivDataCpu.h
/home/prashant/Documents/Git/ForkDSPH/DualSPHysics/src/source/JCellDivDataCpu.h
JCellDivDataGpu.h
/home/prashant/Documents/Git/ForkDSPH/DualSPHysics/src/source/JCellDivDataGpu.h
cuda_runtime_api.h
-

/home/prashant/Documents/Git/ForkDSPH/DualSPHysics/src/source/JDsGaugeSystem.cpp
JDsGaugeSystem.h
/home/prashant/Documents/Git/ForkDSPH/DualSPHysics/src/source/JDsGaugeSystem.h
FunSphKernel.h
/home/prashant/Documents/Git/ForkDSPH/DualSPHysics/src/source/FunSphKernel.h
JLog2.h
/home/prashant/Documents/Git/ForkDSPH/DualSPHysics/src/source/JLog2.h
JXml.h
/home/prashant/Documents/Git/ForkDSPH/DualSPHysics/src/source/JXml.h
JAppInfo.h
/home/prashant/Documents/Git/ForkDSPH/DualSPHysics/src/source/JAppInfo.h
Functions.h
/home/prashant/Documents/Git/ForkDSPH/DualSPHysics/src/source/Functions.h
FunctionsGeo3d.h
/home/prashant/Documents/Git/ForkDSPH/DualSPHysics/src/source/FunctionsGeo3d.h
JSphMk.h
/home/prashant/Documents/Git/ForkDSPH/DualSPHysics/src/source/JSphMk.h
JDataArrays.h
/home/prashant/Documents/Git/ForkDSPH/DualSPHysics/src/source/JDataArrays.h
JVtkLib.h
/home/prashant/Documents/Git/ForkDSPH/DualSPHysics/src/source/JVtkLib.h
cfloat
-
climits
-
algorithm
-
FunctionsCuda.h
/home/prashant/Documents/Git/ForkDSPH/DualSPHysics/src/source/FunctionsCuda.h

/home/prashant/Documents/Git/ForkDSPH/DualSPHysics/src/source/JDsGaugeSystem.h
string
-
vector
-
JObject.h
/home/prashant/Documents/Git/ForkDSPH/DualSPHysics/src/source/JObject.h
DualSphDef.h
/home/prashant/Documents/Git/ForkDSPH/DualSPHysics/src/source/DualSphDef.h
JDsGaugeItem.h
/home/prashant/Documents/Git/ForkDSPH/DualSPHysics/src/source/JDsGaugeItem.h

/home/prashant/Documents/Git/ForkDSPH/DualSPHysics/src/source/JDsGauge_ker.h
DualSphDef.h
/home/prashant/Documents/Git/ForkDSPH/DualSPHysics/src/source/DualSphDef.h
JCellDivDataGpu.h
/home/prashant/Documents/Git/ForkDSPH/DualSPHysics/src/source/JCellDivDataGpu.h
cuda_runtime_api.h
-

/home/prashant/Documents/Git/ForkDSPH/DualSPHysics/src/source/JDsInitialize.cpp
JDsInitialize.h
/home/prashant/Documents/Git/ForkDSPH/DualSPHysics/src/source/JDsInitialize.h
JCaseProperties.h
/home/prashant/Documents/Git/ForkDSPH/DualSPHysics/src/source/JCaseProperties.h
Functions.h
/home/prashant/Documents/Git/ForkDSPH/DualSPHysics/src/source/Functions.h
FunctionsMath.h
/home/prashant/Documents/Git/ForkDSPH/DualSPHysics/src/source/FunctionsMath.h
FunctionsGeo3d.h
/home/prashant/Documents/Git/ForkDSPH/DualSPHysics/src/source/FunctionsGeo3d.h
JRangeFilter.h
/home/prashant/Documents/Git/ForkDSPH/DualSPHysics/src/source/JRangeFilter.h
JXml.h
/home/prashant/Documents/Git/ForkDSPH/DualSPHysics/src/source/JXml.h
climits
-

/home/prashant/Documents/Git/ForkDSPH/DualSPHysics/src/source/JDsInitialize.h
string
-
vector
-
cstdlib
-
cmath
-
JObject.h
/home/prashant/Documents/Git/ForkDSPH/DualSPHysics/src/source/JObject.h
TypesDef.h
/home/prashant/Documents/Git/ForkDSPH/DualSPHysics/src/source/TypesDef.h

/home/prashant/Documents/Git/ForkDSPH/DualSPHysics/src/source/JDsMooredFloatings.cpp
JDsMooredFloatings.h
/home/prashant/Documents/Git/ForkDSPH/DualSPHysics/src/source/JDsMooredFloatings.h
JXml.h
/home/prashant/Documents/Git/ForkDSPH/DualSPHysics/src/source/JXml.h
JLog2.h
/home/prashant/Documents/Git/ForkDSPH/DualSPHysics/src/source/JLog2.h
JVtkLib.h
/home/prashant/Documents/Git/ForkDSPH/DualSPHysics/src/source/JVtkLib.h
Functions.h
/home/prashant/Documents/Git/ForkDSPH/DualSPHysics/src/source/Functions.h
FunctionsGeo3d.h
/home/prashant/Documents/Git/ForkDSPH/DualSPHysics/src/source/FunctionsGeo3d.h
JSaveCsv2.h
/home/prashant/Documents/Git/ForkDSPH/DualSPHysics/src/source/JSaveCsv2.h
JDsFtForcePoints.h
/home/prashant/Documents/Git/ForkDSPH/DualSPHysics/src/source/JDsFtForcePoints.h
JAppInfo.h
/home/prashant/Documents/Git/ForkDSPH/DualSPHysics/src/source/JAppInfo.h
DSphMoorDyn.h
/home/prashant/Documents/Git/ForkDSPH/DualSPHysics/src/source/DSphMoorDyn.h
cstdio
-
cstdlib
-
cmath
-
climits
-
cfloat
-

/home/prashant/Documents/Git/ForkDSPH/DualSPHysics/src/source/JDsMooredFloatings.h
JObject.h
/home/prashant/Documents/Git/ForkDSPH/DualSPHysics/src/source/JObject.h
DualSphDef.h
/home/prashant/Documents/Git/ForkDSPH/DualSPHysics/src/source/DualSphDef.h
string
-
vector
-
cmath
-

/home/prashant/Documents/Git/ForkDSPH/DualSPHysics/src/source/JDsMotion.cpp
JDsMotion.h
/home/prashant/Documents/Git/ForkDSPH/DualSPHysics/src/source/JDsMotion.h
JCaseParts.h
/home/prashant/Documents/Git/ForkDSPH/DualSPHysics/src/source/JCaseParts.h
JMotion.h
/home/prashant/Documents/Git/ForkDSPH/DualSPHysics/src/source/JMotion.h
JXml.h
/home/prashant/Documents/Git/ForkDSPH/DualSPHysics/src/source/JXml.h
climits
-

/home/prashant/Documents/Git/ForkDSPH/DualSPHysics/src/source/JDsMotion.h
JObject.h
/home/prashant/Documents/Git/ForkDSPH/DualSPHysics/src/source/JObject.h
DualSphDef.h
/home/prashant/Documents/Git/ForkDSPH/DualSPHysics/src/source/DualSphDef.h
string
-

/home/prashant/Documents/Git/ForkDSPH/DualSPHysics/src/source/JDsOutputTime.cpp
JDsOutputTime.h
/home/prashant/Documents/Git/ForkDSPH/DualSPHysics/src/source/JDsOutputTime.h
Functions.h
/home/prashant/Documents/Git/ForkDSPH/DualSPHysics/src/source/Functions.h
JXml.h
/home/prashant/Documents/Git/ForkDSPH/DualSPHysics/src/source/JXml.h
JLog2.h
/home/prashant/Documents/Git/ForkDSPH/DualSPHysics/src/source/JLog2.h
cstring
-
cfloat
-

/home/prashant/Documents/Git/ForkDSPH/DualSPHysics/src/source/JDsOutputTime.h
JObject.h
/home/prashant/Documents/Git/ForkDSPH/DualSPHysics/src/source/JObject.h
string
-
vector
-

/home/prashant/Documents/Git/ForkDSPH/DualSPHysics/src/source/JDsPartsInit.cpp
JDsPartsInit.h
/home/prashant/Documents/Git/ForkDSPH/DualSPHysics/src/source/JDsPartsInit.h
JSphMk.h
/home/prashant/Documents/Git/ForkDSPH/DualSPHysics/src/source/JSphMk.h
JAppInfo.h
/home/prashant/Documents/Git/ForkDSPH/DualSPHysics/src/source/JAppInfo.h
Functions.h
/home/prashant/Documents/Git/ForkDSPH/DualSPHysics/src/source/Functions.h
FunctionsMath.h
/home/prashant/Documents/Git/ForkDSPH/DualSPHysics/src/source/FunctionsMath.h
cfloat
-
algorithm
-
cstring
-

/home/prashant/Documents/Git/ForkDSPH/DualSPHysics/src/source/JDsPartsInit.h
string
-
vector
-
JObject.h
/home/prashant/Documents/Git/ForkDSPH/DualSPHysics/src/source/JObject.h
DualSphDef.h
/home/prashant/Documents/Git/ForkDSPH/DualSPHysics/src/source/DualSphDef.h

/home/prashant/Documents/Git/ForkDSPH/DualSPHysics/src/source/JDsPartsOut.cpp
JDsPartsOut.h
/home/prashant/Documents/Git/ForkDSPH/DualSPHysics/src/source/JDsPartsOut.h
Functions.h
/home/prashant/Documents/Git/ForkDSPH/DualSPHysics/src/source/Functions.h
algorithm
-

/home/prashant/Documents/Git/ForkDSPH/DualSPHysics/src/source/JDsPartsOut.h
DualSphDef.h
/home/prashant/Documents/Git/ForkDSPH/DualSPHysics/src/source/DualSphDef.h
JObject.h
/home/prashant/Documents/Git/ForkDSPH/DualSPHysics/src/source/JObject.h
cstring
-

/home/prashant/Documents/Git/ForkDSPH/DualSPHysics/src/source/JDsPips.cpp
JDsPips.h
/home/prashant/Documents/Git/ForkDSPH/DualSPHysics/src/source/JDsPips.h
JCellSearch_inline.h
/home/prashant/Documents/Git/ForkDSPH/DualSPHysics/src/source/JCellSearch_inline.h
JLog2.h
/home/prashant/Documents/Git/ForkDSPH/DualSPHysics/src/source/JLog2.h
JAppInfo.h
/home/prashant/Documents/Git/ForkDSPH/DualSPHysics/src/source/JAppInfo.h
Functions.h
/home/prashant/Documents/Git/ForkDSPH/DualSPHysics/src/source/Functions.h
JSaveCsv2.h
/home/prashant/Documents/Git/ForkDSPH/DualSPHysics/src/source/JSaveCsv2.h
JDsPips_ker.h
/home/prashant/Documents/Git/ForkDSPH/DualSPHysics/src/source/JDsPips_ker.h
climits
-
cfloat
-
cstring
-

/home/prashant/Documents/Git/ForkDSPH/DualSPHysics/src/source/JDsPips.h
JObject.h
/home/prashant/Documents/Git/ForkDSPH/DualSPHysics/src/source/JObject.h
DualSphDef.h
/home/prashant/Documents/Git/ForkDSPH/DualSPHysics/src/source/DualSphDef.h
JCellDivDataCpu.h
/home/prashant/Documents/Git/ForkDSPH/DualSPHysics/src/source/JCellDivDataCpu.h
JCellDivDataGpu.h
/home/prashant/Documents/Git/ForkDSPH/DualSPHysics/src/source/JCellDivDataGpu.h
cuda_runtime_api.h
-
string
-
vector
-

/home/prashant/Documents/Git/ForkDSPH/DualSPHysics/src/source/JDsPips_ker.h
DualSphDef.h
/home/prashant/Documents/Git/ForkDSPH/DualSPHysics/src/source/DualSphDef.h
JCellDivDataGpu.h
/home/prashant/Documents/Git/ForkDSPH/DualSPHysics/src/source/JCellDivDataGpu.h
cuda_runtime_api.h
-

/home/prashant/Documents/Git/ForkDSPH/DualSPHysics/src/source/JDsSaveDt.cpp
JDsSaveDt.h
/home/prashant/Documents/Git/ForkDSPH/DualSPHysics/src/source/JDsSaveDt.h
JLog2.h
/home/prashant/Documents/Git/ForkDSPH/DualSPHysics/src/source/JLog2.h
JXml.h
/home/prashant/Documents/Git/ForkDSPH/DualSPHysics/src/source/JXml.h
JAppInfo.h
/home/prashant/Documents/Git/ForkDSPH/DualSPHysics/src/source/JAppInfo.h
Functions.h
/home/prashant/Documents/Git/ForkDSPH/DualSPHysics/src/source/Functions.h
JSaveCsv2.h
/home/prashant/Documents/Git/ForkDSPH/DualSPHysics/src/source/JSaveCsv2.h
cfloat
-
fstream
-
iostream
-
sstream
-

/home/prashant/Documents/Git/ForkDSPH/DualSPHysics/src/source/JDsSaveDt.h
string
-
vector
-
JObject.h
/home/prashant/Documents/Git/ForkDSPH/DualSPHysics/src/source/JObject.h
DualSphDef.h
/home/prashant/Documents/Git/ForkDSPH/DualSPHysics/src/source/DualSphDef.h

/home/prashant/Documents/Git/ForkDSPH/DualSPHysics/src/source/JDsViscoInput.cpp
JDsViscoInput.h
/home/prashant/Documents/Git/ForkDSPH/DualSPHysics/src/source/JDsViscoInput.h
Functions.h
/home/prashant/Documents/Git/ForkDSPH/DualSPHysics/src/source/Functions.h
JReadDatafile.h
/home/prashant/Documents/Git/ForkDSPH/DualSPHysics/src/source/JReadDatafile.h
cstring
-
float.h
-

/home/prashant/Documents/Git/ForkDSPH/DualSPHysics/src/source/JDsViscoInput.h
JObject.h
/home/prashant/Documents/Git/ForkDSPH/DualSPHysics/src/source/JObject.h
DualSphDef.h
/home/prashant/Documents/Git/ForkDSPH/DualSPHysics/src/source/DualSphDef.h
JTimer.h
/home/prashant/Documents/Git/ForkDSPH/DualSPHysics/src/source/JTimer.h
string
-
sstream
-
iostream
-
fstream
-
cstdlib
-

/home/prashant/Documents/Git/ForkDSPH/DualSPHysics/src/source/JDsphConfig.cpp
JDsphConfig.h
/home/prashant/Documents/Git/ForkDSPH/DualSPHysics/src/source/JDsphConfig.h
Functions.h
/home/prashant/Documents/Git/ForkDSPH/DualSPHysics/src/source/Functions.h
JXml.h
/home/prashant/Documents/Git/ForkDSPH/DualSPHysics/src/source/JXml.h
algorithm
-

/home/prashant/Documents/Git/ForkDSPH/DualSPHysics/src/source/JDsphConfig.h
JObject.h
/home/prashant/Documents/Git/ForkDSPH/DualSPHysics/src/source/JObject.h
TypesDef.h
/home/prashant/Documents/Git/ForkDSPH/DualSPHysics/src/source/TypesDef.h
string
-

/home/prashant/Documents/Git/ForkDSPH/DualSPHysics/src/source/JException.cpp
JException.h
/home/prashant/Documents/Git/ForkDSPH/DualSPHysics/src/source/JException.h
Functions.h
/home/prashant/Documents/Git/ForkDSPH/DualSPHysics/src/source/Functions.h
cstdio
-

/home/prashant/Documents/Git/ForkDSPH/DualSPHysics/src/source/JException.h
string
-

/home/prashant/Documents/Git/ForkDSPH/DualSPHysics/src/source/JLinearValue.cpp
JLinearValue.h
/home/prashant/Documents/Git/ForkDSPH/DualSPHysics/src/source/JLinearValue.h
Functions.h
/home/prashant/Documents/Git/ForkDSPH/DualSPHysics/src/source/Functions.h
JReadDatafile.h
/home/prashant/Documents/Git/ForkDSPH/DualSPHysics/src/source/JReadDatafile.h
JXml.h
/home/prashant/Documents/Git/ForkDSPH/DualSPHysics/src/source/JXml.h
cstring
-
sstream
-
iostream
-
fstream
-
cfloat
-
climits
-
algorithm
-

/home/prashant/Documents/Git/ForkDSPH/DualSPHysics/src/source/JLinearValue.h
JObject.h
/home/prashant/Documents/Git/ForkDSPH/DualSPHysics/src/source/JObject.h
TypesDef.h
/home/prashant/Documents/Git/ForkDSPH/DualSPHysics/src/source/TypesDef.h
JLinearValueDef.h
/home/prashant/Documents/Git/ForkDSPH/DualSPHysics/src/source/JLinearValueDef.h
string
-
sstream
-
iostream
-
fstream
-
cstdlib
-
string
-

/home/prashant/Documents/Git/ForkDSPH/DualSPHysics/src/source/JLinearValueDef.h

/home/prashant/Documents/Git/ForkDSPH/DualSPHysics/src/source/JLog2.cpp
JLog2.h
/home/prashant/Documents/Git/ForkDSPH/DualSPHysics/src/source/JLog2.h
Functions.h
/home/prashant/Documents/Git/ForkDSPH/DualSPHysics/src/source/Functions.h
stdarg.h
-
algorithm
-

/home/prashant/Documents/Git/ForkDSPH/DualSPHysics/src/source/JLog2.h
JObject.h
/home/prashant/Documents/Git/ForkDSPH/DualSPHysics/src/source/JObject.h
string
-
sstream
-
iostream
-
fstream
-
vector
-

/home/prashant/Documents/Git/ForkDSPH/DualSPHysics/src/source/JMLPistons.h
JObject.h
/home/prashant/Documents/Git/ForkDSPH/DualSPHysics/src/source/JObject.h
DualSphDef.h
/home/prashant/Documents/Git/ForkDSPH/DualSPHysics/src/source/DualSphDef.h
string
-
vector
-

/home/prashant/Documents/Git/ForkDSPH/DualSPHysics/src/source/JMLPistonsGpu.cpp
JMLPistonsGpu.h
/home/prashant/Documents/Git/ForkDSPH/DualSPHysics/src/source/JMLPistonsGpu.h
cuda_runtime_api.h
-

/home/prashant/Documents/Git/ForkDSPH/DualSPHysics/src/source/JMLPistonsGpu.h
TypesDef.h
/home/prashant/Documents/Git/ForkDSPH/DualSPHysics/src/source/TypesDef.h
JObject.h
/home/prashant/Documents/Git/ForkDSPH/DualSPHysics/src/source/JObject.h

/home/prashant/Documents/Git/ForkDSPH/DualSPHysics/src/source/JMatrix4.h
TypesDef.h
/home/prashant/Documents/Git/ForkDSPH/DualSPHysics/src/source/TypesDef.h
cstdio
-
cmath
-

/home/prashant/Documents/Git/ForkDSPH/DualSPHysics/src/source/JMeanValues.cpp
JMeanValues.h
/home/prashant/Documents/Git/ForkDSPH/DualSPHysics/src/source/JMeanValues.h
cmath
-

/home/prashant/Documents/Git/ForkDSPH/DualSPHysics/src/source/JMeanValues.h
JObject.h
/home/prashant/Documents/Git/ForkDSPH/DualSPHysics/src/source/JObject.h
TypesDef.h
/home/prashant/Documents/Git/ForkDSPH/DualSPHysics/src/source/TypesDef.h
cfloat
-

/home/prashant/Documents/Git/ForkDSPH/DualSPHysics/src/source/JMotion.cpp
JMotion.h
/home/prashant/Documents/Git/ForkDSPH/DualSPHysics/src/source/JMotion.h
JMotionMov.h
/home/prashant/Documents/Git/ForkDSPH/DualSPHysics/src/source/JMotionMov.h
JMotionObj.h
/home/prashant/Documents/Git/ForkDSPH/DualSPHysics/src/source/JMotionObj.h
JMotionEvent.h
/home/prashant/Documents/Git/ForkDSPH/DualSPHysics/src/source/JMotionEvent.h
JMotionList.h
/home/prashant/Documents/Git/ForkDSPH/DualSPHysics/src/source/JMotionList.h
Functions.h
/home/prashant/Documents/Git/ForkDSPH/DualSPHysics/src/source/Functions.h
JXml.h
/home/prashant/Documents/Git/ForkDSPH/DualSPHysics/src/source/JXml.h
algorithm
-

/home/prashant/Documents/Git/ForkDSPH/DualSPHysics/src/source/JMotion.h
TypesDef.h
/home/prashant/Documents/Git/ForkDSPH/DualSPHysics/src/source/TypesDef.h
JObject.h
/home/prashant/Documents/Git/ForkDSPH/DualSPHysics/src/source/JObject.h
JMatrix4.h
/home/prashant/Documents/Git/ForkDSPH/DualSPHysics/src/source/JMatrix4.h
string
-
cstdlib
-
ctime
-
vector
-

/home/prashant/Documents/Git/ForkDSPH/DualSPHysics/src/source/JMotionEvent.h

/home/prashant/Documents/Git/ForkDSPH/DualSPHysics/src/source/JMotionList.cpp
JMotionList.h
/home/prashant/Documents/Git/ForkDSPH/DualSPHysics/src/source/JMotionList.h

/home/prashant/Documents/Git/ForkDSPH/DualSPHysics/src/source/JMotionList.h
TypesDef.h
/home/prashant/Documents/Git/ForkDSPH/DualSPHysics/src/source/TypesDef.h
JObject.h
/home/prashant/Documents/Git/ForkDSPH/DualSPHysics/src/source/JObject.h
JMatrix4.h
/home/prashant/Documents/Git/ForkDSPH/DualSPHysics/src/source/JMatrix4.h
string
-
cstdlib
-
ctime
-

/home/prashant/Documents/Git/ForkDSPH/DualSPHysics/src/source/JMotionMov.cpp
JMotionMov.h
/home/prashant/Documents/Git/ForkDSPH/DualSPHysics/src/source/JMotionMov.h
JXml.h
/home/prashant/Documents/Git/ForkDSPH/DualSPHysics/src/source/JXml.h
JReadDatafile.h
/home/prashant/Documents/Git/ForkDSPH/DualSPHysics/src/source/JReadDatafile.h

/home/prashant/Documents/Git/ForkDSPH/DualSPHysics/src/source/JMotionMov.h
TypesDef.h
/home/prashant/Documents/Git/ForkDSPH/DualSPHysics/src/source/TypesDef.h
JObject.h
/home/prashant/Documents/Git/ForkDSPH/DualSPHysics/src/source/JObject.h

/home/prashant/Documents/Git/ForkDSPH/DualSPHysics/src/source/JMotionObj.cpp
JMotionObj.h
/home/prashant/Documents/Git/ForkDSPH/DualSPHysics/src/source/JMotionObj.h
JMotionMov.h
/home/prashant/Documents/Git/ForkDSPH/DualSPHysics/src/source/JMotionMov.h
JMotionEvent.h
/home/prashant/Documents/Git/ForkDSPH/DualSPHysics/src/source/JMotionEvent.h
JMotion.h
/home/prashant/Documents/Git/ForkDSPH/DualSPHysics/src/source/JMotion.h
Functions.h
/home/prashant/Documents/Git/ForkDSPH/DualSPHysics/src/source/Functions.h
JXml.h
/home/prashant/Documents/Git/ForkDSPH/DualSPHysics/src/source/JXml.h
JReadDatafile.h
/home/prashant/Documents/Git/ForkDSPH/DualSPHysics/src/source/JReadDatafile.h
fstream
-
cstring
-

/home/prashant/Documents/Git/ForkDSPH/DualSPHysics/src/source/JMotionObj.h
TypesDef.h
/home/prashant/Documents/Git/ForkDSPH/DualSPHysics/src/source/TypesDef.h
JObject.h
/home/prashant/Documents/Git/ForkDSPH/DualSPHysics/src/source/JObject.h
JMotionPos.h
/home/prashant/Documents/Git/ForkDSPH/DualSPHysics/src/source/JMotionPos.h
string
-
cstdlib
-
ctime
-
vector
-

/home/prashant/Documents/Git/ForkDSPH/DualSPHysics/src/source/JMotionPos.cpp
JMotionPos.h
/home/prashant/Documents/Git/ForkDSPH/DualSPHysics/src/source/JMotionPos.h

/home/prashant/Documents/Git/ForkDSPH/DualSPHysics/src/source/JMotionPos.h
TypesDef.h
/home/prashant/Documents/Git/ForkDSPH/DualSPHysics/src/source/TypesDef.h
string
-
cstdlib
-
ctime
-
JMatrix4.h
/home/prashant/Documents/Git/ForkDSPH/DualSPHysics/src/source/JMatrix4.h

/home/prashant/Documents/Git/ForkDSPH/DualSPHysics/src/source/JNormalsMarrone.cpp
JNormalsMarrone.h
/home/prashant/Documents/Git/ForkDSPH/DualSPHysics/src/source/JNormalsMarrone.h
Functions.h
/home/prashant/Documents/Git/ForkDSPH/DualSPHysics/src/source/Functions.h
FunctionsGeo3d.h
/home/prashant/Documents/Git/ForkDSPH/DualSPHysics/src/source/FunctionsGeo3d.h
JPartDataBi4.h
/home/prashant/Documents/Git/ForkDSPH/DualSPHysics/src/source/JPartDataBi4.h
JPartNormalData.h
/home/prashant/Documents/Git/ForkDSPH/DualSPHysics/src/source/JPartNormalData.h
JDataArrays.h
/home/prashant/Documents/Git/ForkDSPH/DualSPHysics/src/source/JDataArrays.h
JVtkLib.h
/home/prashant/Documents/Git/ForkDSPH/DualSPHysics/src/source/JVtkLib.h
cstring
-
cfloat
-
climits
-
algorithm
-

/home/prashant/Documents/Git/ForkDSPH/DualSPHysics/src/source/JNormalsMarrone.h
JObject.h
/home/prashant/Documents/Git/ForkDSPH/DualSPHysics/src/source/JObject.h
TypesDef.h
/home/prashant/Documents/Git/ForkDSPH/DualSPHysics/src/source/TypesDef.h
string
-
climits
-
vector
-

/home/prashant/Documents/Git/ForkDSPH/DualSPHysics/src/source/JNumexLib.h
TypesDef.h
/home/prashant/Documents/Git/ForkDSPH/DualSPHysics/src/source/TypesDef.h
string
-
vector
-
JNumexLibDef.h
/home/prashant/Documents/Git/ForkDSPH/DualSPHysics/src/source/JNumexLibDef.h
JNumexLibUndef.h
/home/prashant/Documents/Git/ForkDSPH/DualSPHysics/src/source/JNumexLibUndef.h

/home/prashant/Documents/Git/ForkDSPH/DualSPHysics/src/source/JNumexLibDef.h

/home/prashant/Documents/Git/ForkDSPH/DualSPHysics/src/source/JNumexLibUndef.h

/home/prashant/Documents/Git/ForkDSPH/DualSPHysics/src/source/JObject.cpp
JObject.h
/home/prashant/Documents/Git/ForkDSPH/DualSPHysics/src/source/JObject.h
JException.h
/home/prashant/Documents/Git/ForkDSPH/DualSPHysics/src/source/JException.h
cstdlib
-
cstdio
-
ctime
-

/home/prashant/Documents/Git/ForkDSPH/DualSPHysics/src/source/JObject.h
string
-

/home/prashant/Documents/Git/ForkDSPH/DualSPHysics/src/source/JObjectGpu.cpp
JObjectGpu.h
/home/prashant/Documents/Git/ForkDSPH/DualSPHysics/src/source/JObjectGpu.h
JException.h
/home/prashant/Documents/Git/ForkDSPH/DualSPHysics/src/source/JException.h
Functions.h
/home/prashant/Documents/Git/ForkDSPH/DualSPHysics/src/source/Functions.h
cstdio
-
cstdlib
-
ctime
-

/home/prashant/Documents/Git/ForkDSPH/DualSPHysics/src/source/JObjectGpu.h
JObject.h
/home/prashant/Documents/Git/ForkDSPH/DualSPHysics/src/source/JObject.h
cuda_runtime_api.h
-
string
-

/home/prashant/Documents/Git/ForkDSPH/DualSPHysics/src/source/JOutputCsv.cpp
JOutputCsv.h
/home/prashant/Documents/Git/ForkDSPH/DualSPHysics/src/source/JOutputCsv.h
JDataArrays.h
/home/prashant/Documents/Git/ForkDSPH/DualSPHysics/src/source/JDataArrays.h
Functions.h
/home/prashant/Documents/Git/ForkDSPH/DualSPHysics/src/source/Functions.h
iostream
-
sstream
-
fstream
-
cstdlib
-
cmath
-

/home/prashant/Documents/Git/ForkDSPH/DualSPHysics/src/source/JOutputCsv.h
TypesDef.h
/home/prashant/Documents/Git/ForkDSPH/DualSPHysics/src/source/TypesDef.h
JObject.h
/home/prashant/Documents/Git/ForkDSPH/DualSPHysics/src/source/JObject.h
JDataArrays.h
/home/prashant/Documents/Git/ForkDSPH/DualSPHysics/src/source/JDataArrays.h
string
-
cstring
-
string
-
vector
-

/home/prashant/Documents/Git/ForkDSPH/DualSPHysics/src/source/JPartDataBi4.cpp
JPartDataBi4.h
/home/prashant/Documents/Git/ForkDSPH/DualSPHysics/src/source/JPartDataBi4.h
JPartDataHead.h
/home/prashant/Documents/Git/ForkDSPH/DualSPHysics/src/source/JPartDataHead.h
Functions.h
/home/prashant/Documents/Git/ForkDSPH/DualSPHysics/src/source/Functions.h
fstream
-
cmath
-
cstring
-
cstdlib
-
iostream
-
sstream
-

/home/prashant/Documents/Git/ForkDSPH/DualSPHysics/src/source/JPartDataBi4.h
JObject.h
/home/prashant/Documents/Git/ForkDSPH/DualSPHysics/src/source/JObject.h
TypesDef.h
/home/prashant/Documents/Git/ForkDSPH/DualSPHysics/src/source/TypesDef.h
JPeriodicDef.h
/home/prashant/Documents/Git/ForkDSPH/DualSPHysics/src/source/JPeriodicDef.h
JBinaryData.h
/home/prashant/Documents/Git/ForkDSPH/DualSPHysics/src/source/JBinaryData.h
string
-
vector
-
fstream
-
cfloat
-

/home/prashant/Documents/Git/ForkDSPH/DualSPHysics/src/source/JPartDataHead.cpp
JPartDataHead.h
/home/prashant/Documents/Git/ForkDSPH/DualSPHysics/src/source/JPartDataHead.h
JBinaryData.h
/home/prashant/Documents/Git/ForkDSPH/DualSPHysics/src/source/JBinaryData.h
Functions.h
/home/prashant/Documents/Git/ForkDSPH/DualSPHysics/src/source/Functions.h
algorithm
-
climits
-
cfloat
-

/home/prashant/Documents/Git/ForkDSPH/DualSPHysics/src/source/JPartDataHead.h
string
-
vector
-
JObject.h
/home/prashant/Documents/Git/ForkDSPH/DualSPHysics/src/source/JObject.h
TypesDef.h
/home/prashant/Documents/Git/ForkDSPH/DualSPHysics/src/source/TypesDef.h
JParticlesDef.h
/home/prashant/Documents/Git/ForkDSPH/DualSPHysics/src/source/JParticlesDef.h
JPeriodicDef.h
/home/prashant/Documents/Git/ForkDSPH/DualSPHysics/src/source/JPeriodicDef.h

/home/prashant/Documents/Git/ForkDSPH/DualSPHysics/src/source/JPartFloatBi4.cpp
JPartFloatBi4.h
/home/prashant/Documents/Git/ForkDSPH/DualSPHysics/src/source/JPartFloatBi4.h
Functions.h
/home/prashant/Documents/Git/ForkDSPH/DualSPHysics/src/source/Functions.h
fstream
-
cmath
-
cstring
-
cstdlib
-
iostream
-
sstream
-

/home/prashant/Documents/Git/ForkDSPH/DualSPHysics/src/source/JPartFloatBi4.h
JObject.h
/home/prashant/Documents/Git/ForkDSPH/DualSPHysics/src/source/JObject.h
TypesDef.h
/home/prashant/Documents/Git/ForkDSPH/DualSPHysics/src/source/TypesDef.h
JBinaryData.h
/home/prashant/Documents/Git/ForkDSPH/DualSPHysics/src/source/JBinaryData.h
string
-
vector
-
fstream
-

/home/prashant/Documents/Git/ForkDSPH/DualSPHysics/src/source/JPartNormalData.cpp
JPartNormalData.h
/home/prashant/Documents/Git/ForkDSPH/DualSPHysics/src/source/JPartNormalData.h
JBinaryData.h
/home/prashant/Documents/Git/ForkDSPH/DualSPHysics/src/source/JBinaryData.h
Functions.h
/home/prashant/Documents/Git/ForkDSPH/DualSPHysics/src/source/Functions.h
algorithm
-
climits
-
cfloat
-
cstring
-

/home/prashant/Documents/Git/ForkDSPH/DualSPHysics/src/source/JPartNormalData.h
string
-
vector
-
JObject.h
/home/prashant/Documents/Git/ForkDSPH/DualSPHysics/src/source/JObject.h
TypesDef.h
/home/prashant/Documents/Git/ForkDSPH/DualSPHysics/src/source/TypesDef.h
JBinaryData.h
/home/prashant/Documents/Git/ForkDSPH/DualSPHysics/src/source/JBinaryData.h

/home/prashant/Documents/Git/ForkDSPH/DualSPHysics/src/source/JPartOutBi4Save.cpp
JPartOutBi4Save.h
/home/prashant/Documents/Git/ForkDSPH/DualSPHysics/src/source/JPartOutBi4Save.h
Functions.h
/home/prashant/Documents/Git/ForkDSPH/DualSPHysics/src/source/Functions.h
fstream
-
cmath
-
cstring
-
cstdlib
-
iostream
-
sstream
-

/home/prashant/Documents/Git/ForkDSPH/DualSPHysics/src/source/JPartOutBi4Save.h
JObject.h
/home/prashant/Documents/Git/ForkDSPH/DualSPHysics/src/source/JObject.h
TypesDef.h
/home/prashant/Documents/Git/ForkDSPH/DualSPHysics/src/source/TypesDef.h
JBinaryData.h
/home/prashant/Documents/Git/ForkDSPH/DualSPHysics/src/source/JBinaryData.h
string
-
vector
-
fstream
-

/home/prashant/Documents/Git/ForkDSPH/DualSPHysics/src/source/JParticlesDef.h
string
-

/home/prashant/Documents/Git/ForkDSPH/DualSPHysics/src/source/JPartsLoad4.cpp
JPartsLoad4.h
/home/prashant/Documents/Git/ForkDSPH/DualSPHysics/src/source/JPartsLoad4.h
Functions.h
/home/prashant/Documents/Git/ForkDSPH/DualSPHysics/src/source/Functions.h
JPartDataBi4.h
/home/prashant/Documents/Git/ForkDSPH/DualSPHysics/src/source/JPartDataBi4.h
JRadixSort.h
/home/prashant/Documents/Git/ForkDSPH/DualSPHysics/src/source/JRadixSort.h
climits
-
cfloat
-

/home/prashant/Documents/Git/ForkDSPH/DualSPHysics/src/source/JPartsLoad4.h
TypesDef.h
/home/prashant/Documents/Git/ForkDSPH/DualSPHysics/src/source/TypesDef.h
JPeriodicDef.h
/home/prashant/Documents/Git/ForkDSPH/DualSPHysics/src/source/JPeriodicDef.h
JObject.h
/home/prashant/Documents/Git/ForkDSPH/DualSPHysics/src/source/JObject.h
cstring
-

/home/prashant/Documents/Git/ForkDSPH/DualSPHysics/src/source/JPeriodicDef.h
TypesDef.h
/home/prashant/Documents/Git/ForkDSPH/DualSPHysics/src/source/TypesDef.h
string
-

/home/prashant/Documents/Git/ForkDSPH/DualSPHysics/src/source/JRadixSort.cpp
JRadixSort.h
/home/prashant/Documents/Git/ForkDSPH/DualSPHysics/src/source/JRadixSort.h
string
-
cstring
-
climits
-
algorithm
-

/home/prashant/Documents/Git/ForkDSPH/DualSPHysics/src/source/JRadixSort.h
JObject.h
/home/prashant/Documents/Git/ForkDSPH/DualSPHysics/src/source/JObject.h
TypesDef.h
/home/prashant/Documents/Git/ForkDSPH/DualSPHysics/src/source/TypesDef.h
OmpDefs.h
/home/prashant/Documents/Git/ForkDSPH/DualSPHysics/src/source/OmpDefs.h

/home/prashant/Documents/Git/ForkDSPH/DualSPHysics/src/source/JRangeFilter.cpp
JRangeFilter.h
/home/prashant/Documents/Git/ForkDSPH/DualSPHysics/src/source/JRangeFilter.h
Functions.h
/home/prashant/Documents/Git/ForkDSPH/DualSPHysics/src/source/Functions.h
cstdlib
-
cstring
-
climits
-
algorithm
-

/home/prashant/Documents/Git/ForkDSPH/DualSPHysics/src/source/JRangeFilter.h
TypesDef.h
/home/prashant/Documents/Git/ForkDSPH/DualSPHysics/src/source/TypesDef.h
JObject.h
/home/prashant/Documents/Git/ForkDSPH/DualSPHysics/src/source/JObject.h
string
-
vector
-

/home/prashant/Documents/Git/ForkDSPH/DualSPHysics/src/source/JReadDatafile.cpp
JReadDatafile.h
/home/prashant/Documents/Git/ForkDSPH/DualSPHysics/src/source/JReadDatafile.h
Functions.h
/home/prashant/Documents/Git/ForkDSPH/DualSPHysics/src/source/Functions.h
cstring
-
cstdlib
-
cstdio
-
sstream
-
iostream
-
fstream
-

/home/prashant/Documents/Git/ForkDSPH/DualSPHysics/src/source/JReadDatafile.h
string
-
vector
-
JObject.h
/home/prashant/Documents/Git/ForkDSPH/DualSPHysics/src/source/JObject.h
TypesDef.h
/home/prashant/Documents/Git/ForkDSPH/DualSPHysics/src/source/TypesDef.h

/home/prashant/Documents/Git/ForkDSPH/DualSPHysics/src/source/JReduSum_ker.h
cuda_runtime_api.h
-

/home/prashant/Documents/Git/ForkDSPH/DualSPHysics/src/source/JRelaxZone_ker.h
DualSphDef.h
/home/prashant/Documents/Git/ForkDSPH/DualSPHysics/src/source/DualSphDef.h
cuda_runtime_api.h
-

/home/prashant/Documents/Git/ForkDSPH/DualSPHysics/src/source/JRelaxZones.h
JObject.h
/home/prashant/Documents/Git/ForkDSPH/DualSPHysics/src/source/JObject.h
DualSphDef.h
/home/prashant/Documents/Git/ForkDSPH/DualSPHysics/src/source/DualSphDef.h
string
-
vector
-

/home/prashant/Documents/Git/ForkDSPH/DualSPHysics/src/source/JRelaxZonesGpu.cpp
JRelaxZonesGpu.h
/home/prashant/Documents/Git/ForkDSPH/DualSPHysics/src/source/JRelaxZonesGpu.h
JRelaxZone_ker.h
/home/prashant/Documents/Git/ForkDSPH/DualSPHysics/src/source/JRelaxZone_ker.h
cuda_runtime_api.h
-

/home/prashant/Documents/Git/ForkDSPH/DualSPHysics/src/source/JRelaxZonesGpu.h
TypesDef.h
/home/prashant/Documents/Git/ForkDSPH/DualSPHysics/src/source/TypesDef.h
JObject.h
/home/prashant/Documents/Git/ForkDSPH/DualSPHysics/src/source/JObject.h

/home/prashant/Documents/Git/ForkDSPH/DualSPHysics/src/source/JSaveCsv2.cpp
JSaveCsv2.h
/home/prashant/Documents/Git/ForkDSPH/DualSPHysics/src/source/JSaveCsv2.h
Functions.h
/home/prashant/Documents/Git/ForkDSPH/DualSPHysics/src/source/Functions.h
cstring
-
cstdlib
-
stdarg.h
-

/home/prashant/Documents/Git/ForkDSPH/DualSPHysics/src/source/JSaveCsv2.h
TypesDef.h
/home/prashant/Documents/Git/ForkDSPH/DualSPHysics/src/source/TypesDef.h
JObject.h
/home/prashant/Documents/Git/ForkDSPH/DualSPHysics/src/source/JObject.h
string
-
fstream
-
iostream
-
sstream
-

/home/prashant/Documents/Git/ForkDSPH/DualSPHysics/src/source/JSimpleNeigs.cpp
JSimpleNeigs.h
/home/prashant/Documents/Git/ForkDSPH/DualSPHysics/src/source/JSimpleNeigs.h
Functions.h
/home/prashant/Documents/Git/ForkDSPH/DualSPHysics/src/source/Functions.h
cstring
-
cmath
-
cfloat
-
algorithm
-

/home/prashant/Documents/Git/ForkDSPH/DualSPHysics/src/source/JSimpleNeigs.h
JObject.h
/home/prashant/Documents/Git/ForkDSPH/DualSPHysics/src/source/JObject.h
TypesDef.h
/home/prashant/Documents/Git/ForkDSPH/DualSPHysics/src/source/TypesDef.h
climits
-

/home/prashant/Documents/Git/ForkDSPH/DualSPHysics/src/source/JSph.cpp
JSph.h
/home/prashant/Documents/Git/ForkDSPH/DualSPHysics/src/source/JSph.h
JAppInfo.h
/home/prashant/Documents/Git/ForkDSPH/DualSPHysics/src/source/JAppInfo.h
Functions.h
/home/prashant/Documents/Git/ForkDSPH/DualSPHysics/src/source/Functions.h
FunctionsGeo3d.h
/home/prashant/Documents/Git/ForkDSPH/DualSPHysics/src/source/FunctionsGeo3d.h
FunSphKernelsCfg.h
/home/prashant/Documents/Git/ForkDSPH/DualSPHysics/src/source/FunSphKernelsCfg.h
FunSphKernel.h
/home/prashant/Documents/Git/ForkDSPH/DualSPHysics/src/source/FunSphKernel.h
JPartDataHead.h
/home/prashant/Documents/Git/ForkDSPH/DualSPHysics/src/source/JPartDataHead.h
JSphMk.h
/home/prashant/Documents/Git/ForkDSPH/DualSPHysics/src/source/JSphMk.h
JDsPartsInit.h
/home/prashant/Documents/Git/ForkDSPH/DualSPHysics/src/source/JDsPartsInit.h
JPartsLoad4.h
/home/prashant/Documents/Git/ForkDSPH/DualSPHysics/src/source/JPartsLoad4.h
JDsMotion.h
/home/prashant/Documents/Git/ForkDSPH/DualSPHysics/src/source/JDsMotion.h
JXml.h
/home/prashant/Documents/Git/ForkDSPH/DualSPHysics/src/source/JXml.h
JCaseCtes.h
/home/prashant/Documents/Git/ForkDSPH/DualSPHysics/src/source/JCaseCtes.h
JCaseEParms.h
/home/prashant/Documents/Git/ForkDSPH/DualSPHysics/src/source/JCaseEParms.h
JCaseParts.h
/home/prashant/Documents/Git/ForkDSPH/DualSPHysics/src/source/JCaseParts.h
JDsFixedDt.h
/home/prashant/Documents/Git/ForkDSPH/DualSPHysics/src/source/JDsFixedDt.h
JDsSaveDt.h
/home/prashant/Documents/Git/ForkDSPH/DualSPHysics/src/source/JDsSaveDt.h
JDsOutputTime.h
/home/prashant/Documents/Git/ForkDSPH/DualSPHysics/src/source/JDsOutputTime.h
JDsViscoInput.h
/home/prashant/Documents/Git/ForkDSPH/DualSPHysics/src/source/JDsViscoInput.h
JDsGaugeSystem.h
/home/prashant/Documents/Git/ForkDSPH/DualSPHysics/src/source/JDsGaugeSystem.h
JWaveGen.h
/home/prashant/Documents/Git/ForkDSPH/DualSPHysics/src/source/JWaveGen.h
JMLPistons.h
/home/prashant/Documents/Git/ForkDSPH/DualSPHysics/src/source/JMLPistons.h
JRelaxZones.h
/home/prashant/Documents/Git/ForkDSPH/DualSPHysics/src/source/JRelaxZones.h
JChronoObjects.h
/home/prashant/Documents/Git/ForkDSPH/DualSPHysics/src/source/JChronoObjects.h
JDsMooredFloatings.h
/home/prashant/Documents/Git/ForkDSPH/DualSPHysics/src/source/JDsMooredFloatings.h
JDsFtForcePoints.h
/home/prashant/Documents/Git/ForkDSPH/DualSPHysics/src/source/JDsFtForcePoints.h
JDsAccInput.h
/home/prashant/Documents/Git/ForkDSPH/DualSPHysics/src/source/JDsAccInput.h
JPartDataBi4.h
/home/prashant/Documents/Git/ForkDSPH/DualSPHysics/src/source/JPartDataBi4.h
JPartOutBi4Save.h
/home/prashant/Documents/Git/ForkDSPH/DualSPHysics/src/source/JPartOutBi4Save.h
JPartFloatBi4.h
/home/prashant/Documents/Git/ForkDSPH/DualSPHysics/src/source/JPartFloatBi4.h
JDsPartsOut.h
/home/prashant/Documents/Git/ForkDSPH/DualSPHysics/src/source/JDsPartsOut.h
JSphShifting.h
/home/prashant/Documents/Git/ForkDSPH/DualSPHysics/src/source/JSphShifting.h
JDsDamping.h
/home/prashant/Documents/Git/ForkDSPH/DualSPHysics/src/source/JDsDamping.h
JDsInitialize.h
/home/prashant/Documents/Git/ForkDSPH/DualSPHysics/src/source/JDsInitialize.h
JSphInOut.h
/home/prashant/Documents/Git/ForkDSPH/DualSPHysics/src/source/JSphInOut.h
JSphBoundCorr.h
/home/prashant/Documents/Git/ForkDSPH/DualSPHysics/src/source/JSphBoundCorr.h
JDsPips.h
/home/prashant/Documents/Git/ForkDSPH/DualSPHysics/src/source/JDsPips.h
JLinearValue.h
/home/prashant/Documents/Git/ForkDSPH/DualSPHysics/src/source/JLinearValue.h
JPartNormalData.h
/home/prashant/Documents/Git/ForkDSPH/DualSPHysics/src/source/JPartNormalData.h
JNormalsMarrone.h
/home/prashant/Documents/Git/ForkDSPH/DualSPHysics/src/source/JNormalsMarrone.h
JDataArrays.h
/home/prashant/Documents/Git/ForkDSPH/DualSPHysics/src/source/JDataArrays.h
JOutputCsv.h
/home/prashant/Documents/Git/ForkDSPH/DualSPHysics/src/source/JOutputCsv.h
JVtkLib.h
/home/prashant/Documents/Git/ForkDSPH/DualSPHysics/src/source/JVtkLib.h
JNumexLib.h
/home/prashant/Documents/Git/ForkDSPH/DualSPHysics/src/source/JNumexLib.h
JCaseUserVars.h
/home/prashant/Documents/Git/ForkDSPH/DualSPHysics/src/source/JCaseUserVars.h
algorithm
-

/home/prashant/Documents/Git/ForkDSPH/DualSPHysics/src/source/JSph.h
DualSphDef.h
/home/prashant/Documents/Git/ForkDSPH/DualSPHysics/src/source/DualSphDef.h
JObject.h
/home/prashant/Documents/Git/ForkDSPH/DualSPHysics/src/source/JObject.h
JSphCfgRun.h
/home/prashant/Documents/Git/ForkDSPH/DualSPHysics/src/source/JSphCfgRun.h
JLog2.h
/home/prashant/Documents/Git/ForkDSPH/DualSPHysics/src/source/JLog2.h
JTimer.h
/home/prashant/Documents/Git/ForkDSPH/DualSPHysics/src/source/JTimer.h
float.h
-
string
-
cmath
-
ctime
-
sstream
-
iostream
-
fstream
-

/home/prashant/Documents/Git/ForkDSPH/DualSPHysics/src/source/JSphBoundCorr.cpp
JSphBoundCorr.h
/home/prashant/Documents/Git/ForkDSPH/DualSPHysics/src/source/JSphBoundCorr.h
JSphCpu.h
/home/prashant/Documents/Git/ForkDSPH/DualSPHysics/src/source/JSphCpu.h
JSphMk.h
/home/prashant/Documents/Git/ForkDSPH/DualSPHysics/src/source/JSphMk.h
JDsPartsInit.h
/home/prashant/Documents/Git/ForkDSPH/DualSPHysics/src/source/JDsPartsInit.h
JXml.h
/home/prashant/Documents/Git/ForkDSPH/DualSPHysics/src/source/JXml.h
JLog2.h
/home/prashant/Documents/Git/ForkDSPH/DualSPHysics/src/source/JLog2.h
JAppInfo.h
/home/prashant/Documents/Git/ForkDSPH/DualSPHysics/src/source/JAppInfo.h
Functions.h
/home/prashant/Documents/Git/ForkDSPH/DualSPHysics/src/source/Functions.h
FunctionsGeo3d.h
/home/prashant/Documents/Git/ForkDSPH/DualSPHysics/src/source/FunctionsGeo3d.h
JMatrix4.h
/home/prashant/Documents/Git/ForkDSPH/DualSPHysics/src/source/JMatrix4.h
JLinearValue.h
/home/prashant/Documents/Git/ForkDSPH/DualSPHysics/src/source/JLinearValue.h
JSaveCsv2.h
/home/prashant/Documents/Git/ForkDSPH/DualSPHysics/src/source/JSaveCsv2.h
JRangeFilter.h
/home/prashant/Documents/Git/ForkDSPH/DualSPHysics/src/source/JRangeFilter.h
JVtkLib.h
/home/prashant/Documents/Git/ForkDSPH/DualSPHysics/src/source/JVtkLib.h
cfloat
-
climits
-
algorithm
-

/home/prashant/Documents/Git/ForkDSPH/DualSPHysics/src/source/JSphBoundCorr.h
string
-
vector
-
JObject.h
/home/prashant/Documents/Git/ForkDSPH/DualSPHysics/src/source/JObject.h
DualSphDef.h
/home/prashant/Documents/Git/ForkDSPH/DualSPHysics/src/source/DualSphDef.h

/home/prashant/Documents/Git/ForkDSPH/DualSPHysics/src/source/JSphCfgRun.cpp
JSphCfgRun.h
/home/prashant/Documents/Git/ForkDSPH/DualSPHysics/src/source/JSphCfgRun.h
JAppInfo.h
/home/prashant/Documents/Git/ForkDSPH/DualSPHysics/src/source/JAppInfo.h
JDsphConfig.h
/home/prashant/Documents/Git/ForkDSPH/DualSPHysics/src/source/JDsphConfig.h

/home/prashant/Documents/Git/ForkDSPH/DualSPHysics/src/source/JSphCfgRun.h
JCfgRunBase.h
/home/prashant/Documents/Git/ForkDSPH/DualSPHysics/src/source/JCfgRunBase.h
DualSphDef.h
/home/prashant/Documents/Git/ForkDSPH/DualSPHysics/src/source/DualSphDef.h

/home/prashant/Documents/Git/ForkDSPH/DualSPHysics/src/source/JSphCpu.cpp
JSphCpu.h
/home/prashant/Documents/Git/ForkDSPH/DualSPHysics/src/source/JSphCpu.h
JCellSearch_inline.h
/home/prashant/Documents/Git/ForkDSPH/DualSPHysics/src/source/JCellSearch_inline.h
JCellDivCpu.h
/home/prashant/Documents/Git/ForkDSPH/DualSPHysics/src/source/JCellDivCpu.h
JPartFloatBi4.h
/home/prashant/Documents/Git/ForkDSPH/DualSPHysics/src/source/JPartFloatBi4.h
FunSphKernel.h
/home/prashant/Documents/Git/ForkDSPH/DualSPHysics/src/source/FunSphKernel.h
FunSphEos.h
/home/prashant/Documents/Git/ForkDSPH/DualSPHysics/src/source/FunSphEos.h
Functions.h
/home/prashant/Documents/Git/ForkDSPH/DualSPHysics/src/source/Functions.h
FunctionsMath.h
/home/prashant/Documents/Git/ForkDSPH/DualSPHysics/src/source/FunctionsMath.h
JDsMotion.h
/home/prashant/Documents/Git/ForkDSPH/DualSPHysics/src/source/JDsMotion.h
JArraysCpu.h
/home/prashant/Documents/Git/ForkDSPH/DualSPHysics/src/source/JArraysCpu.h
JDsFixedDt.h
/home/prashant/Documents/Git/ForkDSPH/DualSPHysics/src/source/JDsFixedDt.h
JWaveGen.h
/home/prashant/Documents/Git/ForkDSPH/DualSPHysics/src/source/JWaveGen.h
JMLPistons.h
/home/prashant/Documents/Git/ForkDSPH/DualSPHysics/src/source/JMLPistons.h
JRelaxZones.h
/home/prashant/Documents/Git/ForkDSPH/DualSPHysics/src/source/JRelaxZones.h
JChronoObjects.h
/home/prashant/Documents/Git/ForkDSPH/DualSPHysics/src/source/JChronoObjects.h
JDsFtForcePoints.h
/home/prashant/Documents/Git/ForkDSPH/DualSPHysics/src/source/JDsFtForcePoints.h
JDsDamping.h
/home/prashant/Documents/Git/ForkDSPH/DualSPHysics/src/source/JDsDamping.h
JXml.h
/home/prashant/Documents/Git/ForkDSPH/DualSPHysics/src/source/JXml.h
JDsSaveDt.h
/home/prashant/Documents/Git/ForkDSPH/DualSPHysics/src/source/JDsSaveDt.h
JDsOutputTime.h
/home/prashant/Documents/Git/ForkDSPH/DualSPHysics/src/source/JDsOutputTime.h
JDsAccInput.h
/home/prashant/Documents/Git/ForkDSPH/DualSPHysics/src/source/JDsAccInput.h
JDsGaugeSystem.h
/home/prashant/Documents/Git/ForkDSPH/DualSPHysics/src/source/JDsGaugeSystem.h
JSphBoundCorr.h
/home/prashant/Documents/Git/ForkDSPH/DualSPHysics/src/source/JSphBoundCorr.h
JSphShifting.h
/home/prashant/Documents/Git/ForkDSPH/DualSPHysics/src/source/JSphShifting.h
climits
-
unistd.h
-

/home/prashant/Documents/Git/ForkDSPH/DualSPHysics/src/source/JSphCpu.h
DualSphDef.h
/home/prashant/Documents/Git/ForkDSPH/DualSPHysics/src/source/DualSphDef.h
JSphTimersCpu.h
/home/prashant/Documents/Git/ForkDSPH/DualSPHysics/src/source/JSphTimersCpu.h
JCellDivDataCpu.h
/home/prashant/Documents/Git/ForkDSPH/DualSPHysics/src/source/JCellDivDataCpu.h
JSph.h
/home/prashant/Documents/Git/ForkDSPH/DualSPHysics/src/source/JSph.h
string
-

/home/prashant/Documents/Git/ForkDSPH/DualSPHysics/src/source/JSphCpuSingle.cpp
JSphCpuSingle.h
/home/prashant/Documents/Git/ForkDSPH/DualSPHysics/src/source/JSphCpuSingle.h
JCellDivCpuSingle.h
/home/prashant/Documents/Git/ForkDSPH/DualSPHysics/src/source/JCellDivCpuSingle.h
JArraysCpu.h
/home/prashant/Documents/Git/ForkDSPH/DualSPHysics/src/source/JArraysCpu.h
JSphMk.h
/home/prashant/Documents/Git/ForkDSPH/DualSPHysics/src/source/JSphMk.h
JPartsLoad4.h
/home/prashant/Documents/Git/ForkDSPH/DualSPHysics/src/source/JPartsLoad4.h
Functions.h
/home/prashant/Documents/Git/ForkDSPH/DualSPHysics/src/source/Functions.h
FunctionsMath.h
/home/prashant/Documents/Git/ForkDSPH/DualSPHysics/src/source/FunctionsMath.h
JXml.h
/home/prashant/Documents/Git/ForkDSPH/DualSPHysics/src/source/JXml.h
JDsMotion.h
/home/prashant/Documents/Git/ForkDSPH/DualSPHysics/src/source/JDsMotion.h
JDsViscoInput.h
/home/prashant/Documents/Git/ForkDSPH/DualSPHysics/src/source/JDsViscoInput.h
JWaveGen.h
/home/prashant/Documents/Git/ForkDSPH/DualSPHysics/src/source/JWaveGen.h
JMLPistons.h
/home/prashant/Documents/Git/ForkDSPH/DualSPHysics/src/source/JMLPistons.h
JRelaxZones.h
/home/prashant/Documents/Git/ForkDSPH/DualSPHysics/src/source/JRelaxZones.h
JChronoObjects.h
/home/prashant/Documents/Git/ForkDSPH/DualSPHysics/src/source/JChronoObjects.h
JDsMooredFloatings.h
/home/prashant/Documents/Git/ForkDSPH/DualSPHysics/src/source/JDsMooredFloatings.h
JDsFtForcePoints.h
/home/prashant/Documents/Git/ForkDSPH/DualSPHysics/src/source/JDsFtForcePoints.h
JDsOutputTime.h
/home/prashant/Documents/Git/ForkDSPH/DualSPHysics/src/source/JDsOutputTime.h
JTimeControl.h
/home/prashant/Documents/Git/ForkDSPH/DualSPHysics/src/source/JTimeControl.h
JDsGaugeSystem.h
/home/prashant/Documents/Git/ForkDSPH/DualSPHysics/src/source/JDsGaugeSystem.h
JSphInOut.h
/home/prashant/Documents/Git/ForkDSPH/DualSPHysics/src/source/JSphInOut.h
JLinearValue.h
/home/prashant/Documents/Git/ForkDSPH/DualSPHysics/src/source/JLinearValue.h
JDataArrays.h
/home/prashant/Documents/Git/ForkDSPH/DualSPHysics/src/source/JDataArrays.h
JSphShifting.h
/home/prashant/Documents/Git/ForkDSPH/DualSPHysics/src/source/JSphShifting.h
JDsPips.h
/home/prashant/Documents/Git/ForkDSPH/DualSPHysics/src/source/JDsPips.h
climits
-

/home/prashant/Documents/Git/ForkDSPH/DualSPHysics/src/source/JSphCpuSingle.h
DualSphDef.h
/home/prashant/Documents/Git/ForkDSPH/DualSPHysics/src/source/DualSphDef.h
JSphCpu.h
/home/prashant/Documents/Git/ForkDSPH/DualSPHysics/src/source/JSphCpu.h
string
-

/home/prashant/Documents/Git/ForkDSPH/DualSPHysics/src/source/JSphCpuSingle_InOut.cpp
JSphCpuSingle.h
/home/prashant/Documents/Git/ForkDSPH/DualSPHysics/src/source/JSphCpuSingle.h
JCellDivCpuSingle.h
/home/prashant/Documents/Git/ForkDSPH/DualSPHysics/src/source/JCellDivCpuSingle.h
JArraysCpu.h
/home/prashant/Documents/Git/ForkDSPH/DualSPHysics/src/source/JArraysCpu.h
JSphInOut.h
/home/prashant/Documents/Git/ForkDSPH/DualSPHysics/src/source/JSphInOut.h
JSphMk.h
/home/prashant/Documents/Git/ForkDSPH/DualSPHysics/src/source/JSphMk.h
JDsPartsInit.h
/home/prashant/Documents/Git/ForkDSPH/DualSPHysics/src/source/JDsPartsInit.h
JSphBoundCorr.h
/home/prashant/Documents/Git/ForkDSPH/DualSPHysics/src/source/JSphBoundCorr.h
JSphInOutPoints.h
/home/prashant/Documents/Git/ForkDSPH/DualSPHysics/src/source/JSphInOutPoints.h
JSimpleNeigs.h
/home/prashant/Documents/Git/ForkDSPH/DualSPHysics/src/source/JSimpleNeigs.h
FunctionsMath.h
/home/prashant/Documents/Git/ForkDSPH/DualSPHysics/src/source/FunctionsMath.h
JAppInfo.h
/home/prashant/Documents/Git/ForkDSPH/DualSPHysics/src/source/JAppInfo.h
JTimeControl.h
/home/prashant/Documents/Git/ForkDSPH/DualSPHysics/src/source/JTimeControl.h
JDataArrays.h
/home/prashant/Documents/Git/ForkDSPH/DualSPHysics/src/source/JDataArrays.h
JVtkLib.h
/home/prashant/Documents/Git/ForkDSPH/DualSPHysics/src/source/JVtkLib.h
climits
-

/home/prashant/Documents/Git/ForkDSPH/DualSPHysics/src/source/JSphCpu_InOut.cpp
JSphCpu.h
/home/prashant/Documents/Git/ForkDSPH/DualSPHysics/src/source/JSphCpu.h
JCellSearch_inline.h
/home/prashant/Documents/Git/ForkDSPH/DualSPHysics/src/source/JCellSearch_inline.h
FunSphKernel.h
/home/prashant/Documents/Git/ForkDSPH/DualSPHysics/src/source/FunSphKernel.h
FunctionsMath.h
/home/prashant/Documents/Git/ForkDSPH/DualSPHysics/src/source/FunctionsMath.h
FunctionsGeo3d.h
/home/prashant/Documents/Git/ForkDSPH/DualSPHysics/src/source/FunctionsGeo3d.h
JSphInOut.h
/home/prashant/Documents/Git/ForkDSPH/DualSPHysics/src/source/JSphInOut.h
JSphInOutZone.h
/home/prashant/Documents/Git/ForkDSPH/DualSPHysics/src/source/JSphInOutZone.h
climits
-

/home/prashant/Documents/Git/ForkDSPH/DualSPHysics/src/source/JSphGpu.cpp
JSphGpu.h
/home/prashant/Documents/Git/ForkDSPH/DualSPHysics/src/source/JSphGpu.h
JException.h
/home/prashant/Documents/Git/ForkDSPH/DualSPHysics/src/source/JException.h
JSphGpu_ker.h
/home/prashant/Documents/Git/ForkDSPH/DualSPHysics/src/source/JSphGpu_ker.h
JSphGpuSimple_ker.h
/home/prashant/Documents/Git/ForkDSPH/DualSPHysics/src/source/JSphGpuSimple_ker.h
JCellDivGpu.h
/home/prashant/Documents/Git/ForkDSPH/DualSPHysics/src/source/JCellDivGpu.h
JPartFloatBi4.h
/home/prashant/Documents/Git/ForkDSPH/DualSPHysics/src/source/JPartFloatBi4.h
Functions.h
/home/prashant/Documents/Git/ForkDSPH/DualSPHysics/src/source/Functions.h
FunctionsCuda.h
/home/prashant/Documents/Git/ForkDSPH/DualSPHysics/src/source/FunctionsCuda.h
JDsMotion.h
/home/prashant/Documents/Git/ForkDSPH/DualSPHysics/src/source/JDsMotion.h
JArraysGpu.h
/home/prashant/Documents/Git/ForkDSPH/DualSPHysics/src/source/JArraysGpu.h
JDsFixedDt.h
/home/prashant/Documents/Git/ForkDSPH/DualSPHysics/src/source/JDsFixedDt.h
JDsSaveDt.h
/home/prashant/Documents/Git/ForkDSPH/DualSPHysics/src/source/JDsSaveDt.h
JDsOutputTime.h
/home/prashant/Documents/Git/ForkDSPH/DualSPHysics/src/source/JDsOutputTime.h
JWaveGen.h
/home/prashant/Documents/Git/ForkDSPH/DualSPHysics/src/source/JWaveGen.h
JMLPistons.h
/home/prashant/Documents/Git/ForkDSPH/DualSPHysics/src/source/JMLPistons.h
JRelaxZones.h
/home/prashant/Documents/Git/ForkDSPH/DualSPHysics/src/source/JRelaxZones.h
JChronoObjects.h
/home/prashant/Documents/Git/ForkDSPH/DualSPHysics/src/source/JChronoObjects.h
JDsFtForcePoints.h
/home/prashant/Documents/Git/ForkDSPH/DualSPHysics/src/source/JDsFtForcePoints.h
JDsDamping.h
/home/prashant/Documents/Git/ForkDSPH/DualSPHysics/src/source/JDsDamping.h
JDsAccInput.h
/home/prashant/Documents/Git/ForkDSPH/DualSPHysics/src/source/JDsAccInput.h
JXml.h
/home/prashant/Documents/Git/ForkDSPH/DualSPHysics/src/source/JXml.h
JDsGaugeSystem.h
/home/prashant/Documents/Git/ForkDSPH/DualSPHysics/src/source/JDsGaugeSystem.h
JSphBoundCorr.h
/home/prashant/Documents/Git/ForkDSPH/DualSPHysics/src/source/JSphBoundCorr.h
JSphShifting.h
/home/prashant/Documents/Git/ForkDSPH/DualSPHysics/src/source/JSphShifting.h
JDataArrays.h
/home/prashant/Documents/Git/ForkDSPH/DualSPHysics/src/source/JDataArrays.h
JVtkLib.h
/home/prashant/Documents/Git/ForkDSPH/DualSPHysics/src/source/JVtkLib.h
climits
-
unistd.h
-

/home/prashant/Documents/Git/ForkDSPH/DualSPHysics/src/source/JSphGpu.h
DualSphDef.h
/home/prashant/Documents/Git/ForkDSPH/DualSPHysics/src/source/DualSphDef.h
JSphTimersGpu.h
/home/prashant/Documents/Git/ForkDSPH/DualSPHysics/src/source/JSphTimersGpu.h
JCellDivDataGpu.h
/home/prashant/Documents/Git/ForkDSPH/DualSPHysics/src/source/JCellDivDataGpu.h
JSph.h
/home/prashant/Documents/Git/ForkDSPH/DualSPHysics/src/source/JSph.h
string
-

/home/prashant/Documents/Git/ForkDSPH/DualSPHysics/src/source/JSphGpuSimple_ker.h
DualSphDef.h
/home/prashant/Documents/Git/ForkDSPH/DualSPHysics/src/source/DualSphDef.h
cuda_runtime_api.h
-

/home/prashant/Documents/Git/ForkDSPH/DualSPHysics/src/source/JSphGpuSingle.cpp
JSphGpuSingle.h
/home/prashant/Documents/Git/ForkDSPH/DualSPHysics/src/source/JSphGpuSingle.h
JCellDivGpuSingle.h
/home/prashant/Documents/Git/ForkDSPH/DualSPHysics/src/source/JCellDivGpuSingle.h
JArraysGpu.h
/home/prashant/Documents/Git/ForkDSPH/DualSPHysics/src/source/JArraysGpu.h
JSphMk.h
/home/prashant/Documents/Git/ForkDSPH/DualSPHysics/src/source/JSphMk.h
JPartsLoad4.h
/home/prashant/Documents/Git/ForkDSPH/DualSPHysics/src/source/JPartsLoad4.h
Functions.h
/home/prashant/Documents/Git/ForkDSPH/DualSPHysics/src/source/Functions.h
JXml.h
/home/prashant/Documents/Git/ForkDSPH/DualSPHysics/src/source/JXml.h
JDsMotion.h
/home/prashant/Documents/Git/ForkDSPH/DualSPHysics/src/source/JDsMotion.h
JDsViscoInput.h
/home/prashant/Documents/Git/ForkDSPH/DualSPHysics/src/source/JDsViscoInput.h
JWaveGen.h
/home/prashant/Documents/Git/ForkDSPH/DualSPHysics/src/source/JWaveGen.h
JMLPistons.h
/home/prashant/Documents/Git/ForkDSPH/DualSPHysics/src/source/JMLPistons.h
JRelaxZones.h
/home/prashant/Documents/Git/ForkDSPH/DualSPHysics/src/source/JRelaxZones.h
JChronoObjects.h
/home/prashant/Documents/Git/ForkDSPH/DualSPHysics/src/source/JChronoObjects.h
JDsMooredFloatings.h
/home/prashant/Documents/Git/ForkDSPH/DualSPHysics/src/source/JDsMooredFloatings.h
JDsFtForcePoints.h
/home/prashant/Documents/Git/ForkDSPH/DualSPHysics/src/source/JDsFtForcePoints.h
JDsOutputTime.h
/home/prashant/Documents/Git/ForkDSPH/DualSPHysics/src/source/JDsOutputTime.h
JTimeControl.h
/home/prashant/Documents/Git/ForkDSPH/DualSPHysics/src/source/JTimeControl.h
JSphGpu_ker.h
/home/prashant/Documents/Git/ForkDSPH/DualSPHysics/src/source/JSphGpu_ker.h
JSphGpuSimple_ker.h
/home/prashant/Documents/Git/ForkDSPH/DualSPHysics/src/source/JSphGpuSimple_ker.h
JDsGaugeSystem.h
/home/prashant/Documents/Git/ForkDSPH/DualSPHysics/src/source/JDsGaugeSystem.h
JSphInOut.h
/home/prashant/Documents/Git/ForkDSPH/DualSPHysics/src/source/JSphInOut.h
JLinearValue.h
/home/prashant/Documents/Git/ForkDSPH/DualSPHysics/src/source/JLinearValue.h
JDataArrays.h
/home/prashant/Documents/Git/ForkDSPH/DualSPHysics/src/source/JDataArrays.h
JDebugSphGpu.h
/home/prashant/Documents/Git/ForkDSPH/DualSPHysics/src/source/JDebugSphGpu.h
JSphShifting.h
/home/prashant/Documents/Git/ForkDSPH/DualSPHysics/src/source/JSphShifting.h
JDsPips.h
/home/prashant/Documents/Git/ForkDSPH/DualSPHysics/src/source/JDsPips.h
climits
-

/home/prashant/Documents/Git/ForkDSPH/DualSPHysics/src/source/JSphGpuSingle.h
DualSphDef.h
/home/prashant/Documents/Git/ForkDSPH/DualSPHysics/src/source/DualSphDef.h
JSphGpu.h
/home/prashant/Documents/Git/ForkDSPH/DualSPHysics/src/source/JSphGpu.h
string
-

/home/prashant/Documents/Git/ForkDSPH/DualSPHysics/src/source/JSphGpuSingle_InOut.cpp
JSphGpuSingle.h
/home/prashant/Documents/Git/ForkDSPH/DualSPHysics/src/source/JSphGpuSingle.h
JCellDivGpuSingle.h
/home/prashant/Documents/Git/ForkDSPH/DualSPHysics/src/source/JCellDivGpuSingle.h
JArraysGpu.h
/home/prashant/Documents/Git/ForkDSPH/DualSPHysics/src/source/JArraysGpu.h
JSphMk.h
/home/prashant/Documents/Git/ForkDSPH/DualSPHysics/src/source/JSphMk.h
JDsPartsInit.h
/home/prashant/Documents/Git/ForkDSPH/DualSPHysics/src/source/JDsPartsInit.h
JSphInOut.h
/home/prashant/Documents/Git/ForkDSPH/DualSPHysics/src/source/JSphInOut.h
JSphBoundCorr.h
/home/prashant/Documents/Git/ForkDSPH/DualSPHysics/src/source/JSphBoundCorr.h
JSphGpu_InOut_iker.h
/home/prashant/Documents/Git/ForkDSPH/DualSPHysics/src/source/JSphGpu_InOut_iker.h
JSphInOutPoints.h
/home/prashant/Documents/Git/ForkDSPH/DualSPHysics/src/source/JSphInOutPoints.h
JSimpleNeigs.h
/home/prashant/Documents/Git/ForkDSPH/DualSPHysics/src/source/JSimpleNeigs.h
FunctionsMath.h
/home/prashant/Documents/Git/ForkDSPH/DualSPHysics/src/source/FunctionsMath.h
JAppInfo.h
/home/prashant/Documents/Git/ForkDSPH/DualSPHysics/src/source/JAppInfo.h
JTimeControl.h
/home/prashant/Documents/Git/ForkDSPH/DualSPHysics/src/source/JTimeControl.h
JDataArrays.h
/home/prashant/Documents/Git/ForkDSPH/DualSPHysics/src/source/JDataArrays.h
JVtkLib.h
/home/prashant/Documents/Git/ForkDSPH/DualSPHysics/src/source/JVtkLib.h
climits
-

/home/prashant/Documents/Git/ForkDSPH/DualSPHysics/src/source/JSphGpu_InOut_iker.h
DualSphDef.h
/home/prashant/Documents/Git/ForkDSPH/DualSPHysics/src/source/DualSphDef.h
JCellDivDataGpu.h
/home/prashant/Documents/Git/ForkDSPH/DualSPHysics/src/source/JCellDivDataGpu.h
cuda_runtime_api.h
-

/home/prashant/Documents/Git/ForkDSPH/DualSPHysics/src/source/JSphGpu_ker.h
DualSphDef.h
/home/prashant/Documents/Git/ForkDSPH/DualSPHysics/src/source/DualSphDef.h
JSphTimersGpu.h
/home/prashant/Documents/Git/ForkDSPH/DualSPHysics/src/source/JSphTimersGpu.h
JCellDivDataGpu.h
/home/prashant/Documents/Git/ForkDSPH/DualSPHysics/src/source/JCellDivDataGpu.h
cuda_runtime_api.h
-

/home/prashant/Documents/Git/ForkDSPH/DualSPHysics/src/source/JSphInOut.cpp
JSphInOut.h
/home/prashant/Documents/Git/ForkDSPH/DualSPHysics/src/source/JSphInOut.h
JSphInOutZone.h
/home/prashant/Documents/Git/ForkDSPH/DualSPHysics/src/source/JSphInOutZone.h
JSphInOutGridData.h
/home/prashant/Documents/Git/ForkDSPH/DualSPHysics/src/source/JSphInOutGridData.h
JSphCpu.h
/home/prashant/Documents/Git/ForkDSPH/DualSPHysics/src/source/JSphCpu.h
JXml.h
/home/prashant/Documents/Git/ForkDSPH/DualSPHysics/src/source/JXml.h
JLog2.h
/home/prashant/Documents/Git/ForkDSPH/DualSPHysics/src/source/JLog2.h
JAppInfo.h
/home/prashant/Documents/Git/ForkDSPH/DualSPHysics/src/source/JAppInfo.h
Functions.h
/home/prashant/Documents/Git/ForkDSPH/DualSPHysics/src/source/Functions.h
FunctionsGeo3d.h
/home/prashant/Documents/Git/ForkDSPH/DualSPHysics/src/source/FunctionsGeo3d.h
JVtkLib.h
/home/prashant/Documents/Git/ForkDSPH/DualSPHysics/src/source/JVtkLib.h
JSimpleNeigs.h
/home/prashant/Documents/Git/ForkDSPH/DualSPHysics/src/source/JSimpleNeigs.h
JTimeControl.h
/home/prashant/Documents/Git/ForkDSPH/DualSPHysics/src/source/JTimeControl.h
JDsGaugeSystem.h
/home/prashant/Documents/Git/ForkDSPH/DualSPHysics/src/source/JDsGaugeSystem.h
JNumexLib.h
/home/prashant/Documents/Git/ForkDSPH/DualSPHysics/src/source/JNumexLib.h
FunctionsCuda.h
/home/prashant/Documents/Git/ForkDSPH/DualSPHysics/src/source/FunctionsCuda.h
JSphGpu_InOut_iker.h
/home/prashant/Documents/Git/ForkDSPH/DualSPHysics/src/source/JSphGpu_InOut_iker.h
JDebugSphGpu.h
/home/prashant/Documents/Git/ForkDSPH/DualSPHysics/src/source/JDebugSphGpu.h
cfloat
-
climits
-
algorithm
-

/home/prashant/Documents/Git/ForkDSPH/DualSPHysics/src/source/JSphInOut.h
string
-
vector
-
JObject.h
/home/prashant/Documents/Git/ForkDSPH/DualSPHysics/src/source/JObject.h
DualSphDef.h
/home/prashant/Documents/Git/ForkDSPH/DualSPHysics/src/source/DualSphDef.h
cuda_runtime_api.h
-
JSphTimersGpu.h
/home/prashant/Documents/Git/ForkDSPH/DualSPHysics/src/source/JSphTimersGpu.h

/home/prashant/Documents/Git/ForkDSPH/DualSPHysics/src/source/JSphInOutGridData.cpp
JSphInOutGridData.h
/home/prashant/Documents/Git/ForkDSPH/DualSPHysics/src/source/JSphInOutGridData.h
JLog2.h
/home/prashant/Documents/Git/ForkDSPH/DualSPHysics/src/source/JLog2.h
JAppInfo.h
/home/prashant/Documents/Git/ForkDSPH/DualSPHysics/src/source/JAppInfo.h
Functions.h
/home/prashant/Documents/Git/ForkDSPH/DualSPHysics/src/source/Functions.h
FunctionsMath.h
/home/prashant/Documents/Git/ForkDSPH/DualSPHysics/src/source/FunctionsMath.h
JReadDatafile.h
/home/prashant/Documents/Git/ForkDSPH/DualSPHysics/src/source/JReadDatafile.h
JSaveCsv2.h
/home/prashant/Documents/Git/ForkDSPH/DualSPHysics/src/source/JSaveCsv2.h
JDataArrays.h
/home/prashant/Documents/Git/ForkDSPH/DualSPHysics/src/source/JDataArrays.h
JVtkLib.h
/home/prashant/Documents/Git/ForkDSPH/DualSPHysics/src/source/JVtkLib.h
FunctionsCuda.h
/home/prashant/Documents/Git/ForkDSPH/DualSPHysics/src/source/FunctionsCuda.h
JSphGpu_InOut_iker.h
/home/prashant/Documents/Git/ForkDSPH/DualSPHysics/src/source/JSphGpu_InOut_iker.h
cfloat
-
algorithm
-

/home/prashant/Documents/Git/ForkDSPH/DualSPHysics/src/source/JSphInOutGridData.h
string
-
vector
-
JObject.h
/home/prashant/Documents/Git/ForkDSPH/DualSPHysics/src/source/JObject.h
DualSphDef.h
/home/prashant/Documents/Git/ForkDSPH/DualSPHysics/src/source/DualSphDef.h
cuda_runtime_api.h
-

/home/prashant/Documents/Git/ForkDSPH/DualSPHysics/src/source/JSphInOutPoints.cpp
JSphInOutPoints.h
/home/prashant/Documents/Git/ForkDSPH/DualSPHysics/src/source/JSphInOutPoints.h
JSphMk.h
/home/prashant/Documents/Git/ForkDSPH/DualSPHysics/src/source/JSphMk.h
JDsPartsInit.h
/home/prashant/Documents/Git/ForkDSPH/DualSPHysics/src/source/JDsPartsInit.h
JXml.h
/home/prashant/Documents/Git/ForkDSPH/DualSPHysics/src/source/JXml.h
JLog2.h
/home/prashant/Documents/Git/ForkDSPH/DualSPHysics/src/source/JLog2.h
JAppInfo.h
/home/prashant/Documents/Git/ForkDSPH/DualSPHysics/src/source/JAppInfo.h
Functions.h
/home/prashant/Documents/Git/ForkDSPH/DualSPHysics/src/source/Functions.h
FunctionsGeo3d.h
/home/prashant/Documents/Git/ForkDSPH/DualSPHysics/src/source/FunctionsGeo3d.h
JMatrix4.h
/home/prashant/Documents/Git/ForkDSPH/DualSPHysics/src/source/JMatrix4.h
JDataArrays.h
/home/prashant/Documents/Git/ForkDSPH/DualSPHysics/src/source/JDataArrays.h
JVtkLib.h
/home/prashant/Documents/Git/ForkDSPH/DualSPHysics/src/source/JVtkLib.h
cfloat
-
algorithm
-

/home/prashant/Documents/Git/ForkDSPH/DualSPHysics/src/source/JSphInOutPoints.h
string
-
vector
-
JObject.h
/home/prashant/Documents/Git/ForkDSPH/DualSPHysics/src/source/JObject.h
JMatrix4.h
/home/prashant/Documents/Git/ForkDSPH/DualSPHysics/src/source/JMatrix4.h
DualSphDef.h
/home/prashant/Documents/Git/ForkDSPH/DualSPHysics/src/source/DualSphDef.h

/home/prashant/Documents/Git/ForkDSPH/DualSPHysics/src/source/JSphInOutZone.cpp
JSphInOutZone.h
/home/prashant/Documents/Git/ForkDSPH/DualSPHysics/src/source/JSphInOutZone.h
JSphInOutPoints.h
/home/prashant/Documents/Git/ForkDSPH/DualSPHysics/src/source/JSphInOutPoints.h
JSphInOutGridData.h
/home/prashant/Documents/Git/ForkDSPH/DualSPHysics/src/source/JSphInOutGridData.h
JXml.h
/home/prashant/Documents/Git/ForkDSPH/DualSPHysics/src/source/JXml.h
JLog2.h
/home/prashant/Documents/Git/ForkDSPH/DualSPHysics/src/source/JLog2.h
JAppInfo.h
/home/prashant/Documents/Git/ForkDSPH/DualSPHysics/src/source/JAppInfo.h
Functions.h
/home/prashant/Documents/Git/ForkDSPH/DualSPHysics/src/source/Functions.h
FunctionsMath.h
/home/prashant/Documents/Git/ForkDSPH/DualSPHysics/src/source/FunctionsMath.h
FunctionsGeo3d.h
/home/prashant/Documents/Git/ForkDSPH/DualSPHysics/src/source/FunctionsGeo3d.h
JLinearValue.h
/home/prashant/Documents/Git/ForkDSPH/DualSPHysics/src/source/JLinearValue.h
JDsGaugeSystem.h
/home/prashant/Documents/Git/ForkDSPH/DualSPHysics/src/source/JDsGaugeSystem.h
FunctionsCuda.h
/home/prashant/Documents/Git/ForkDSPH/DualSPHysics/src/source/FunctionsCuda.h
JDebugSphGpu.h
/home/prashant/Documents/Git/ForkDSPH/DualSPHysics/src/source/JDebugSphGpu.h
cfloat
-
climits
-
algorithm
-

/home/prashant/Documents/Git/ForkDSPH/DualSPHysics/src/source/JSphInOutZone.h
string
-
vector
-
JObject.h
/home/prashant/Documents/Git/ForkDSPH/DualSPHysics/src/source/JObject.h
DualSphDef.h
/home/prashant/Documents/Git/ForkDSPH/DualSPHysics/src/source/DualSphDef.h
cuda_runtime_api.h
-
JSphTimersGpu.h
/home/prashant/Documents/Git/ForkDSPH/DualSPHysics/src/source/JSphTimersGpu.h

/home/prashant/Documents/Git/ForkDSPH/DualSPHysics/src/source/JSphMk.cpp
JSphMk.h
/home/prashant/Documents/Git/ForkDSPH/DualSPHysics/src/source/JSphMk.h
Functions.h
/home/prashant/Documents/Git/ForkDSPH/DualSPHysics/src/source/Functions.h
JCaseParts.h
/home/prashant/Documents/Git/ForkDSPH/DualSPHysics/src/source/JCaseParts.h
JPartDataHead.h
/home/prashant/Documents/Git/ForkDSPH/DualSPHysics/src/source/JPartDataHead.h
algorithm
-
climits
-
cfloat
-

/home/prashant/Documents/Git/ForkDSPH/DualSPHysics/src/source/JSphMk.h
string
-
vector
-
JObject.h
/home/prashant/Documents/Git/ForkDSPH/DualSPHysics/src/source/JObject.h
DualSphDef.h
/home/prashant/Documents/Git/ForkDSPH/DualSPHysics/src/source/DualSphDef.h

/home/prashant/Documents/Git/ForkDSPH/DualSPHysics/src/source/JSphShifting.cpp
JSphShifting.h
/home/prashant/Documents/Git/ForkDSPH/DualSPHysics/src/source/JSphShifting.h
JLog2.h
/home/prashant/Documents/Git/ForkDSPH/DualSPHysics/src/source/JLog2.h
JAppInfo.h
/home/prashant/Documents/Git/ForkDSPH/DualSPHysics/src/source/JAppInfo.h
JXml.h
/home/prashant/Documents/Git/ForkDSPH/DualSPHysics/src/source/JXml.h
Functions.h
/home/prashant/Documents/Git/ForkDSPH/DualSPHysics/src/source/Functions.h
FunctionsGeo3d.h
/home/prashant/Documents/Git/ForkDSPH/DualSPHysics/src/source/FunctionsGeo3d.h
JDataArrays.h
/home/prashant/Documents/Git/ForkDSPH/DualSPHysics/src/source/JDataArrays.h
JVtkLib.h
/home/prashant/Documents/Git/ForkDSPH/DualSPHysics/src/source/JVtkLib.h
JSphShifting_ker.h
/home/prashant/Documents/Git/ForkDSPH/DualSPHysics/src/source/JSphShifting_ker.h
cfloat
-
algorithm
-

/home/prashant/Documents/Git/ForkDSPH/DualSPHysics/src/source/JSphShifting.h
JObject.h
/home/prashant/Documents/Git/ForkDSPH/DualSPHysics/src/source/JObject.h
DualSphDef.h
/home/prashant/Documents/Git/ForkDSPH/DualSPHysics/src/source/DualSphDef.h
JMatrix4.h
/home/prashant/Documents/Git/ForkDSPH/DualSPHysics/src/source/JMatrix4.h
cuda_runtime_api.h
-
string
-
vector
-

/home/prashant/Documents/Git/ForkDSPH/DualSPHysics/src/source/JSphShifting_ker.h
TypesDef.h
/home/prashant/Documents/Git/ForkDSPH/DualSPHysics/src/source/TypesDef.h
cuda_runtime_api.h
-

/home/prashant/Documents/Git/ForkDSPH/DualSPHysics/src/source/JSphTimersCpu.h
JTimer.h
/home/prashant/Documents/Git/ForkDSPH/DualSPHysics/src/source/JTimer.h

/home/prashant/Documents/Git/ForkDSPH/DualSPHysics/src/source/JSphTimersGpu.h
JTimerCuda.h
/home/prashant/Documents/Git/ForkDSPH/DualSPHysics/src/source/JTimerCuda.h

/home/prashant/Documents/Git/ForkDSPH/DualSPHysics/src/source/JTimeControl.cpp
JTimeControl.h
/home/prashant/Documents/Git/ForkDSPH/DualSPHysics/src/source/JTimeControl.h
Functions.h
/home/prashant/Documents/Git/ForkDSPH/DualSPHysics/src/source/Functions.h
cstring
-

/home/prashant/Documents/Git/ForkDSPH/DualSPHysics/src/source/JTimeControl.h
JObject.h
/home/prashant/Documents/Git/ForkDSPH/DualSPHysics/src/source/JObject.h
TypesDef.h
/home/prashant/Documents/Git/ForkDSPH/DualSPHysics/src/source/TypesDef.h
JTimer.h
/home/prashant/Documents/Git/ForkDSPH/DualSPHysics/src/source/JTimer.h
string
-
cstdlib
-
vector
-

/home/prashant/Documents/Git/ForkDSPH/DualSPHysics/src/source/JTimer.h
windows.h
-
cstdio
-
sys/time.h
-

/home/prashant/Documents/Git/ForkDSPH/DualSPHysics/src/source/JTimerCuda.h
cuda_runtime_api.h
-

/home/prashant/Documents/Git/ForkDSPH/DualSPHysics/src/source/JVtkLib.h
TypesDef.h
/home/prashant/Documents/Git/ForkDSPH/DualSPHysics/src/source/TypesDef.h
JObject.h
/home/prashant/Documents/Git/ForkDSPH/DualSPHysics/src/source/JObject.h
JDataArrays.h
/home/prashant/Documents/Git/ForkDSPH/DualSPHysics/src/source/JDataArrays.h
string
-
cstring
-
string
-
vector
-
JVtkLibDef.h
/home/prashant/Documents/Git/ForkDSPH/DualSPHysics/src/source/JVtkLibDef.h
JVtkLibUndef.h
/home/prashant/Documents/Git/ForkDSPH/DualSPHysics/src/source/JVtkLibUndef.h

/home/prashant/Documents/Git/ForkDSPH/DualSPHysics/src/source/JVtkLibDef.h

/home/prashant/Documents/Git/ForkDSPH/DualSPHysics/src/source/JVtkLibUndef.h

/home/prashant/Documents/Git/ForkDSPH/DualSPHysics/src/source/JWaveAwasZsurf.cpp
JWaveAwasZsurf.h
/home/prashant/Documents/Git/ForkDSPH/DualSPHysics/src/source/JWaveAwasZsurf.h
JDsGaugeSystem.h
/home/prashant/Documents/Git/ForkDSPH/DualSPHysics/src/source/JDsGaugeSystem.h
JSphMk.h
/home/prashant/Documents/Git/ForkDSPH/DualSPHysics/src/source/JSphMk.h
JLog2.h
/home/prashant/Documents/Git/ForkDSPH/DualSPHysics/src/source/JLog2.h
JXml.h
/home/prashant/Documents/Git/ForkDSPH/DualSPHysics/src/source/JXml.h
JAppInfo.h
/home/prashant/Documents/Git/ForkDSPH/DualSPHysics/src/source/JAppInfo.h
Functions.h
/home/prashant/Documents/Git/ForkDSPH/DualSPHysics/src/source/Functions.h
JSaveCsv2.h
/home/prashant/Documents/Git/ForkDSPH/DualSPHysics/src/source/JSaveCsv2.h
cstring
-
cstdlib
-
cmath
-
cfloat
-
climits
-
sstream
-
iostream
-
fstream
-

/home/prashant/Documents/Git/ForkDSPH/DualSPHysics/src/source/JWaveAwasZsurf.h
JObject.h
/home/prashant/Documents/Git/ForkDSPH/DualSPHysics/src/source/JObject.h
DualSphDef.h
/home/prashant/Documents/Git/ForkDSPH/DualSPHysics/src/source/DualSphDef.h
JMeanValues.h
/home/prashant/Documents/Git/ForkDSPH/DualSPHysics/src/source/JMeanValues.h
JSaveCsv2.h
/home/prashant/Documents/Git/ForkDSPH/DualSPHysics/src/source/JSaveCsv2.h
string
-
vector
-

/home/prashant/Documents/Git/ForkDSPH/DualSPHysics/src/source/JWaveGen.h
DualSphDef.h
/home/prashant/Documents/Git/ForkDSPH/DualSPHysics/src/source/DualSphDef.h
string
-
JWaveGenUndef.h
/home/prashant/Documents/Git/ForkDSPH/DualSPHysics/src/source/JWaveGenUndef.h

/home/prashant/Documents/Git/ForkDSPH/DualSPHysics/src/source/JWaveGenUndef.h

/home/prashant/Documents/Git/ForkDSPH/DualSPHysics/src/source/JWaveOrder2_ker.h
cuda_runtime_api.h
-

/home/prashant/Documents/Git/ForkDSPH/DualSPHysics/src/source/JWaveSpectrumGpu.cpp
JWaveSpectrumGpu.h
/home/prashant/Documents/Git/ForkDSPH/DualSPHysics/src/source/JWaveSpectrumGpu.h
JWaveOrder2_ker.h
/home/prashant/Documents/Git/ForkDSPH/DualSPHysics/src/source/JWaveOrder2_ker.h

/home/prashant/Documents/Git/ForkDSPH/DualSPHysics/src/source/JWaveSpectrumGpu.h
TypesDef.h
/home/prashant/Documents/Git/ForkDSPH/DualSPHysics/src/source/TypesDef.h
JObject.h
/home/prashant/Documents/Git/ForkDSPH/DualSPHysics/src/source/JObject.h

/home/prashant/Documents/Git/ForkDSPH/DualSPHysics/src/source/JXml.cpp
JXml.h
/home/prashant/Documents/Git/ForkDSPH/DualSPHysics/src/source/JXml.h
Functions.h
/home/prashant/Documents/Git/ForkDSPH/DualSPHysics/src/source/Functions.h
JNumexLib.h
/home/prashant/Documents/Git/ForkDSPH/DualSPHysics/src/source/JNumexLib.h
climits
-
ctime
-
sys/stat.h
-
sstream
-
iostream
-
fstream
-

/home/prashant/Documents/Git/ForkDSPH/DualSPHysics/src/source/JXml.h
TypesDef.h
/home/prashant/Documents/Git/ForkDSPH/DualSPHysics/src/source/TypesDef.h
JObject.h
/home/prashant/Documents/Git/ForkDSPH/DualSPHysics/src/source/JObject.h
tinyxml.h
/home/prashant/Documents/Git/ForkDSPH/DualSPHysics/src/source/tinyxml.h
JNumexLibDef.h
/home/prashant/Documents/Git/ForkDSPH/DualSPHysics/src/source/JNumexLibDef.h
string
-

/home/prashant/Documents/Git/ForkDSPH/DualSPHysics/src/source/OmpDefs.h
TypesDef.h
/home/prashant/Documents/Git/ForkDSPH/DualSPHysics/src/source/TypesDef.h
omp.h
-

/home/prashant/Documents/Git/ForkDSPH/DualSPHysics/src/source/TypesDef.h
vector
-

/home/prashant/Documents/Git/ForkDSPH/DualSPHysics/src/source/main.cpp
string
-
cstring
-
iostream
-
sstream
-
fstream
-
JAppInfo.h
/home/prashant/Documents/Git/ForkDSPH/DualSPHysics/src/source/JAppInfo.h
JLog2.h
/home/prashant/Documents/Git/ForkDSPH/DualSPHysics/src/source/JLog2.h
JException.h
/home/prashant/Documents/Git/ForkDSPH/DualSPHysics/src/source/JException.h
JSphCfgRun.h
/home/prashant/Documents/Git/ForkDSPH/DualSPHysics/src/source/JSphCfgRun.h
JSphCpuSingle.h
/home/prashant/Documents/Git/ForkDSPH/DualSPHysics/src/source/JSphCpuSingle.h
JSphGpuSingle.h
/home/prashant/Documents/Git/ForkDSPH/DualSPHysics/src/source/JSphGpuSingle.h

/home/prashant/Documents/Git/ForkDSPH/DualSPHysics/src/source/randomc.cpp
randomc.h
/home/prashant/Documents/Git/ForkDSPH/DualSPHysics/src/source/randomc.h

/home/prashant/Documents/Git/ForkDSPH/DualSPHysics/src/source/randomc.h
stdint.h
-

/home/prashant/Documents/Git/ForkDSPH/DualSPHysics/src/source/tinystr.cpp
tinystr.h
/home/prashant/Documents/Git/ForkDSPH/DualSPHysics/src/source/tinystr.h

/home/prashant/Documents/Git/ForkDSPH/DualSPHysics/src/source/tinystr.h
assert.h
-
string.h
-

/home/prashant/Documents/Git/ForkDSPH/DualSPHysics/src/source/tinyxml.cpp
ctype.h
-
sstream
-
iostream
-
tinyxml.h
/home/prashant/Documents/Git/ForkDSPH/DualSPHysics/src/source/tinyxml.h

/home/prashant/Documents/Git/ForkDSPH/DualSPHysics/src/source/tinyxml.h
ctype.h
-
stdio.h
-
stdlib.h
-
string.h
-
assert.h
-
string
-
iostream
-
sstream
-
tinystr.h
/home/prashant/Documents/Git/ForkDSPH/DualSPHysics/src/source/tinystr.h

/home/prashant/Documents/Git/ForkDSPH/DualSPHysics/src/source/tinyxmlerror.cpp
tinyxml.h
/home/prashant/Documents/Git/ForkDSPH/DualSPHysics/src/source/tinyxml.h

/home/prashant/Documents/Git/ForkDSPH/DualSPHysics/src/source/tinyxmlparser.cpp
ctype.h
-
stddef.h
-
tinyxml.h
/home/prashant/Documents/Git/ForkDSPH/DualSPHysics/src/source/tinyxml.h
windows.h
-

/usr/local/cuda-10.1/include/builtin_types.h
device_types.h
/usr/local/cuda-10.1/include/device_types.h
driver_types.h
/usr/local/cuda-10.1/include/driver_types.h
surface_types.h
/usr/local/cuda-10.1/include/surface_types.h
texture_types.h
/usr/local/cuda-10.1/include/texture_types.h
vector_types.h
/usr/local/cuda-10.1/include/vector_types.h

/usr/local/cuda-10.1/include/crt/host_defines.h

/usr/local/cuda-10.1/include/cuda_device_runtime_api.h
driver_types.h
/usr/local/cuda-10.1/include/driver_types.h
crt/host_defines.h
/usr/local/cuda-10.1/include/crt/host_defines.h

/usr/local/cuda-10.1/include/cuda_runtime_api.h
crt/host_defines.h
/usr/local/cuda-10.1/include/crt/host_defines.h
builtin_types.h
/usr/local/cuda-10.1/include/builtin_types.h
cuda_device_runtime_api.h
/usr/local/cuda-10.1/include/cuda_device_runtime_api.h

/usr/local/cuda-10.1/include/device_types.h
crt/host_defines.h
/usr/local/cuda-10.1/include/crt/host_defines.h

/usr/local/cuda-10.1/include/driver_types.h
crt/host_defines.h
/usr/local/cuda-10.1/include/crt/host_defines.h
vector_types.h
/usr/local/cuda-10.1/include/vector_types.h
limits.h
-
stddef.h
-

/usr/local/cuda-10.1/include/surface_types.h
driver_types.h
/usr/local/cuda-10.1/include/driver_types.h

/usr/local/cuda-10.1/include/texture_types.h
driver_types.h
/usr/local/cuda-10.1/include/driver_types.h

/usr/local/cuda-10.1/include/vector_types.h
crt/host_defines.h
/usr/local/cuda-10.1/include/crt/host_defines.h

