# CMAKE generated file: DO NOT EDIT!
# Generated by "Unix Makefiles" Generator, CMake Version 3.16

CMakeFiles/DualSPHysics5.0_linux64.dir/FunSphKernelsCfg.cpp.o: /home/prashant/Documents/Git/ForkDSPH/DualSPHysics/src/source/DualSphDef.h
CMakeFiles/DualSPHysics5.0_linux64.dir/FunSphKernelsCfg.cpp.o: /home/prashant/Documents/Git/ForkDSPH/DualSPHysics/src/source/FunSphKernel.h
CMakeFiles/DualSPHysics5.0_linux64.dir/FunSphKernelsCfg.cpp.o: /home/prashant/Documents/Git/ForkDSPH/DualSPHysics/src/source/FunSphKernelDef.h
CMakeFiles/DualSPHysics5.0_linux64.dir/FunSphKernelsCfg.cpp.o: /home/prashant/Documents/Git/ForkDSPH/DualSPHysics/src/source/FunSphKernelsCfg.cpp
CMakeFiles/DualSPHysics5.0_linux64.dir/FunSphKernelsCfg.cpp.o: /home/prashant/Documents/Git/ForkDSPH/DualSPHysics/src/source/FunSphKernelsCfg.h
CMakeFiles/DualSPHysics5.0_linux64.dir/FunSphKernelsCfg.cpp.o: /home/prashant/Documents/Git/ForkDSPH/DualSPHysics/src/source/Functions.h
CMakeFiles/DualSPHysics5.0_linux64.dir/FunSphKernelsCfg.cpp.o: /home/prashant/Documents/Git/ForkDSPH/DualSPHysics/src/source/JNumexLibDef.h
CMakeFiles/DualSPHysics5.0_linux64.dir/FunSphKernelsCfg.cpp.o: /home/prashant/Documents/Git/ForkDSPH/DualSPHysics/src/source/JParticlesDef.h
CMakeFiles/DualSPHysics5.0_linux64.dir/FunSphKernelsCfg.cpp.o: /home/prashant/Documents/Git/ForkDSPH/DualSPHysics/src/source/JPeriodicDef.h
CMakeFiles/DualSPHysics5.0_linux64.dir/FunSphKernelsCfg.cpp.o: /home/prashant/Documents/Git/ForkDSPH/DualSPHysics/src/source/JVtkLibDef.h
CMakeFiles/DualSPHysics5.0_linux64.dir/FunSphKernelsCfg.cpp.o: /home/prashant/Documents/Git/ForkDSPH/DualSPHysics/src/source/OmpDefs.h
CMakeFiles/DualSPHysics5.0_linux64.dir/FunSphKernelsCfg.cpp.o: /home/prashant/Documents/Git/ForkDSPH/DualSPHysics/src/source/TypesDef.h

CMakeFiles/DualSPHysics5.0_linux64.dir/Functions.cpp.o: /home/prashant/Documents/Git/ForkDSPH/DualSPHysics/src/source/Functions.cpp
CMakeFiles/DualSPHysics5.0_linux64.dir/Functions.cpp.o: /home/prashant/Documents/Git/ForkDSPH/DualSPHysics/src/source/Functions.h
CMakeFiles/DualSPHysics5.0_linux64.dir/Functions.cpp.o: /home/prashant/Documents/Git/ForkDSPH/DualSPHysics/src/source/TypesDef.h

CMakeFiles/DualSPHysics5.0_linux64.dir/FunctionsCuda.cpp.o: /home/prashant/Documents/Git/ForkDSPH/DualSPHysics/src/source/Functions.h
CMakeFiles/DualSPHysics5.0_linux64.dir/FunctionsCuda.cpp.o: /home/prashant/Documents/Git/ForkDSPH/DualSPHysics/src/source/FunctionsCuda.cpp
CMakeFiles/DualSPHysics5.0_linux64.dir/FunctionsCuda.cpp.o: /home/prashant/Documents/Git/ForkDSPH/DualSPHysics/src/source/FunctionsCuda.h
CMakeFiles/DualSPHysics5.0_linux64.dir/FunctionsCuda.cpp.o: /home/prashant/Documents/Git/ForkDSPH/DualSPHysics/src/source/TypesDef.h
CMakeFiles/DualSPHysics5.0_linux64.dir/FunctionsCuda.cpp.o: /usr/local/cuda-10.1/include/builtin_types.h
CMakeFiles/DualSPHysics5.0_linux64.dir/FunctionsCuda.cpp.o: /usr/local/cuda-10.1/include/crt/host_defines.h
CMakeFiles/DualSPHysics5.0_linux64.dir/FunctionsCuda.cpp.o: /usr/local/cuda-10.1/include/cuda_device_runtime_api.h
CMakeFiles/DualSPHysics5.0_linux64.dir/FunctionsCuda.cpp.o: /usr/local/cuda-10.1/include/cuda_runtime_api.h
CMakeFiles/DualSPHysics5.0_linux64.dir/FunctionsCuda.cpp.o: /usr/local/cuda-10.1/include/device_types.h
CMakeFiles/DualSPHysics5.0_linux64.dir/FunctionsCuda.cpp.o: /usr/local/cuda-10.1/include/driver_types.h
CMakeFiles/DualSPHysics5.0_linux64.dir/FunctionsCuda.cpp.o: /usr/local/cuda-10.1/include/surface_types.h
CMakeFiles/DualSPHysics5.0_linux64.dir/FunctionsCuda.cpp.o: /usr/local/cuda-10.1/include/texture_types.h
CMakeFiles/DualSPHysics5.0_linux64.dir/FunctionsCuda.cpp.o: /usr/local/cuda-10.1/include/vector_types.h

CMakeFiles/DualSPHysics5.0_linux64.dir/FunctionsGeo3d.cpp.o: /home/prashant/Documents/Git/ForkDSPH/DualSPHysics/src/source/Functions.h
CMakeFiles/DualSPHysics5.0_linux64.dir/FunctionsGeo3d.cpp.o: /home/prashant/Documents/Git/ForkDSPH/DualSPHysics/src/source/FunctionsGeo3d.cpp
CMakeFiles/DualSPHysics5.0_linux64.dir/FunctionsGeo3d.cpp.o: /home/prashant/Documents/Git/ForkDSPH/DualSPHysics/src/source/FunctionsGeo3d.h
CMakeFiles/DualSPHysics5.0_linux64.dir/FunctionsGeo3d.cpp.o: /home/prashant/Documents/Git/ForkDSPH/DualSPHysics/src/source/FunctionsMath.h
CMakeFiles/DualSPHysics5.0_linux64.dir/FunctionsGeo3d.cpp.o: /home/prashant/Documents/Git/ForkDSPH/DualSPHysics/src/source/TypesDef.h

CMakeFiles/DualSPHysics5.0_linux64.dir/JAppInfo.cpp.o: /home/prashant/Documents/Git/ForkDSPH/DualSPHysics/src/source/Functions.h
CMakeFiles/DualSPHysics5.0_linux64.dir/JAppInfo.cpp.o: /home/prashant/Documents/Git/ForkDSPH/DualSPHysics/src/source/JAppInfo.cpp
CMakeFiles/DualSPHysics5.0_linux64.dir/JAppInfo.cpp.o: /home/prashant/Documents/Git/ForkDSPH/DualSPHysics/src/source/JAppInfo.h
CMakeFiles/DualSPHysics5.0_linux64.dir/JAppInfo.cpp.o: /home/prashant/Documents/Git/ForkDSPH/DualSPHysics/src/source/JAppInfoDef.h
CMakeFiles/DualSPHysics5.0_linux64.dir/JAppInfo.cpp.o: /home/prashant/Documents/Git/ForkDSPH/DualSPHysics/src/source/JLog2.h
CMakeFiles/DualSPHysics5.0_linux64.dir/JAppInfo.cpp.o: /home/prashant/Documents/Git/ForkDSPH/DualSPHysics/src/source/JObject.h
CMakeFiles/DualSPHysics5.0_linux64.dir/JAppInfo.cpp.o: /home/prashant/Documents/Git/ForkDSPH/DualSPHysics/src/source/TypesDef.h

CMakeFiles/DualSPHysics5.0_linux64.dir/JArraysCpu.cpp.o: /home/prashant/Documents/Git/ForkDSPH/DualSPHysics/src/source/DualSphDef.h
CMakeFiles/DualSPHysics5.0_linux64.dir/JArraysCpu.cpp.o: /home/prashant/Documents/Git/ForkDSPH/DualSPHysics/src/source/FunSphKernelDef.h
CMakeFiles/DualSPHysics5.0_linux64.dir/JArraysCpu.cpp.o: /home/prashant/Documents/Git/ForkDSPH/DualSPHysics/src/source/Functions.h
CMakeFiles/DualSPHysics5.0_linux64.dir/JArraysCpu.cpp.o: /home/prashant/Documents/Git/ForkDSPH/DualSPHysics/src/source/JArraysCpu.cpp
CMakeFiles/DualSPHysics5.0_linux64.dir/JArraysCpu.cpp.o: /home/prashant/Documents/Git/ForkDSPH/DualSPHysics/src/source/JArraysCpu.h
CMakeFiles/DualSPHysics5.0_linux64.dir/JArraysCpu.cpp.o: /home/prashant/Documents/Git/ForkDSPH/DualSPHysics/src/source/JNumexLibDef.h
CMakeFiles/DualSPHysics5.0_linux64.dir/JArraysCpu.cpp.o: /home/prashant/Documents/Git/ForkDSPH/DualSPHysics/src/source/JObject.h
CMakeFiles/DualSPHysics5.0_linux64.dir/JArraysCpu.cpp.o: /home/prashant/Documents/Git/ForkDSPH/DualSPHysics/src/source/JParticlesDef.h
CMakeFiles/DualSPHysics5.0_linux64.dir/JArraysCpu.cpp.o: /home/prashant/Documents/Git/ForkDSPH/DualSPHysics/src/source/JPeriodicDef.h
CMakeFiles/DualSPHysics5.0_linux64.dir/JArraysCpu.cpp.o: /home/prashant/Documents/Git/ForkDSPH/DualSPHysics/src/source/JVtkLibDef.h
CMakeFiles/DualSPHysics5.0_linux64.dir/JArraysCpu.cpp.o: /home/prashant/Documents/Git/ForkDSPH/DualSPHysics/src/source/OmpDefs.h
CMakeFiles/DualSPHysics5.0_linux64.dir/JArraysCpu.cpp.o: /home/prashant/Documents/Git/ForkDSPH/DualSPHysics/src/source/TypesDef.h

CMakeFiles/DualSPHysics5.0_linux64.dir/JArraysGpu.cpp.o: /home/prashant/Documents/Git/ForkDSPH/DualSPHysics/src/source/DualSphDef.h
CMakeFiles/DualSPHysics5.0_linux64.dir/JArraysGpu.cpp.o: /home/prashant/Documents/Git/ForkDSPH/DualSPHysics/src/source/FunSphKernelDef.h
CMakeFiles/DualSPHysics5.0_linux64.dir/JArraysGpu.cpp.o: /home/prashant/Documents/Git/ForkDSPH/DualSPHysics/src/source/Functions.h
CMakeFiles/DualSPHysics5.0_linux64.dir/JArraysGpu.cpp.o: /home/prashant/Documents/Git/ForkDSPH/DualSPHysics/src/source/JArraysGpu.cpp
CMakeFiles/DualSPHysics5.0_linux64.dir/JArraysGpu.cpp.o: /home/prashant/Documents/Git/ForkDSPH/DualSPHysics/src/source/JArraysGpu.h
CMakeFiles/DualSPHysics5.0_linux64.dir/JArraysGpu.cpp.o: /home/prashant/Documents/Git/ForkDSPH/DualSPHysics/src/source/JNumexLibDef.h
CMakeFiles/DualSPHysics5.0_linux64.dir/JArraysGpu.cpp.o: /home/prashant/Documents/Git/ForkDSPH/DualSPHysics/src/source/JObject.h
CMakeFiles/DualSPHysics5.0_linux64.dir/JArraysGpu.cpp.o: /home/prashant/Documents/Git/ForkDSPH/DualSPHysics/src/source/JObjectGpu.h
CMakeFiles/DualSPHysics5.0_linux64.dir/JArraysGpu.cpp.o: /home/prashant/Documents/Git/ForkDSPH/DualSPHysics/src/source/JParticlesDef.h
CMakeFiles/DualSPHysics5.0_linux64.dir/JArraysGpu.cpp.o: /home/prashant/Documents/Git/ForkDSPH/DualSPHysics/src/source/JPeriodicDef.h
CMakeFiles/DualSPHysics5.0_linux64.dir/JArraysGpu.cpp.o: /home/prashant/Documents/Git/ForkDSPH/DualSPHysics/src/source/JVtkLibDef.h
CMakeFiles/DualSPHysics5.0_linux64.dir/JArraysGpu.cpp.o: /home/prashant/Documents/Git/ForkDSPH/DualSPHysics/src/source/OmpDefs.h
CMakeFiles/DualSPHysics5.0_linux64.dir/JArraysGpu.cpp.o: /home/prashant/Documents/Git/ForkDSPH/DualSPHysics/src/source/TypesDef.h
CMakeFiles/DualSPHysics5.0_linux64.dir/JArraysGpu.cpp.o: /usr/local/cuda-10.1/include/builtin_types.h
CMakeFiles/DualSPHysics5.0_linux64.dir/JArraysGpu.cpp.o: /usr/local/cuda-10.1/include/crt/host_defines.h
CMakeFiles/DualSPHysics5.0_linux64.dir/JArraysGpu.cpp.o: /usr/local/cuda-10.1/include/cuda_device_runtime_api.h
CMakeFiles/DualSPHysics5.0_linux64.dir/JArraysGpu.cpp.o: /usr/local/cuda-10.1/include/cuda_runtime_api.h
CMakeFiles/DualSPHysics5.0_linux64.dir/JArraysGpu.cpp.o: /usr/local/cuda-10.1/include/device_types.h
CMakeFiles/DualSPHysics5.0_linux64.dir/JArraysGpu.cpp.o: /usr/local/cuda-10.1/include/driver_types.h
CMakeFiles/DualSPHysics5.0_linux64.dir/JArraysGpu.cpp.o: /usr/local/cuda-10.1/include/surface_types.h
CMakeFiles/DualSPHysics5.0_linux64.dir/JArraysGpu.cpp.o: /usr/local/cuda-10.1/include/texture_types.h
CMakeFiles/DualSPHysics5.0_linux64.dir/JArraysGpu.cpp.o: /usr/local/cuda-10.1/include/vector_types.h

CMakeFiles/DualSPHysics5.0_linux64.dir/JBinaryData.cpp.o: /home/prashant/Documents/Git/ForkDSPH/DualSPHysics/src/source/Functions.h
CMakeFiles/DualSPHysics5.0_linux64.dir/JBinaryData.cpp.o: /home/prashant/Documents/Git/ForkDSPH/DualSPHysics/src/source/JBinaryData.cpp
CMakeFiles/DualSPHysics5.0_linux64.dir/JBinaryData.cpp.o: /home/prashant/Documents/Git/ForkDSPH/DualSPHysics/src/source/JBinaryData.h
CMakeFiles/DualSPHysics5.0_linux64.dir/JBinaryData.cpp.o: /home/prashant/Documents/Git/ForkDSPH/DualSPHysics/src/source/JObject.h
CMakeFiles/DualSPHysics5.0_linux64.dir/JBinaryData.cpp.o: /home/prashant/Documents/Git/ForkDSPH/DualSPHysics/src/source/TypesDef.h

CMakeFiles/DualSPHysics5.0_linux64.dir/JCaseCtes.cpp.o: /home/prashant/Documents/Git/ForkDSPH/DualSPHysics/src/source/Functions.h
CMakeFiles/DualSPHysics5.0_linux64.dir/JCaseCtes.cpp.o: /home/prashant/Documents/Git/ForkDSPH/DualSPHysics/src/source/JCaseCtes.cpp
CMakeFiles/DualSPHysics5.0_linux64.dir/JCaseCtes.cpp.o: /home/prashant/Documents/Git/ForkDSPH/DualSPHysics/src/source/JCaseCtes.h
CMakeFiles/DualSPHysics5.0_linux64.dir/JCaseCtes.cpp.o: /home/prashant/Documents/Git/ForkDSPH/DualSPHysics/src/source/JNumexLibDef.h
CMakeFiles/DualSPHysics5.0_linux64.dir/JCaseCtes.cpp.o: /home/prashant/Documents/Git/ForkDSPH/DualSPHysics/src/source/JObject.h
CMakeFiles/DualSPHysics5.0_linux64.dir/JCaseCtes.cpp.o: /home/prashant/Documents/Git/ForkDSPH/DualSPHysics/src/source/JXml.h
CMakeFiles/DualSPHysics5.0_linux64.dir/JCaseCtes.cpp.o: /home/prashant/Documents/Git/ForkDSPH/DualSPHysics/src/source/TypesDef.h
CMakeFiles/DualSPHysics5.0_linux64.dir/JCaseCtes.cpp.o: /home/prashant/Documents/Git/ForkDSPH/DualSPHysics/src/source/tinystr.h
CMakeFiles/DualSPHysics5.0_linux64.dir/JCaseCtes.cpp.o: /home/prashant/Documents/Git/ForkDSPH/DualSPHysics/src/source/tinyxml.h

CMakeFiles/DualSPHysics5.0_linux64.dir/JCaseEParms.cpp.o: /home/prashant/Documents/Git/ForkDSPH/DualSPHysics/src/source/Functions.h
CMakeFiles/DualSPHysics5.0_linux64.dir/JCaseEParms.cpp.o: /home/prashant/Documents/Git/ForkDSPH/DualSPHysics/src/source/JCaseEParms.cpp
CMakeFiles/DualSPHysics5.0_linux64.dir/JCaseEParms.cpp.o: /home/prashant/Documents/Git/ForkDSPH/DualSPHysics/src/source/JCaseEParms.h
CMakeFiles/DualSPHysics5.0_linux64.dir/JCaseEParms.cpp.o: /home/prashant/Documents/Git/ForkDSPH/DualSPHysics/src/source/JNumexLibDef.h
CMakeFiles/DualSPHysics5.0_linux64.dir/JCaseEParms.cpp.o: /home/prashant/Documents/Git/ForkDSPH/DualSPHysics/src/source/JObject.h
CMakeFiles/DualSPHysics5.0_linux64.dir/JCaseEParms.cpp.o: /home/prashant/Documents/Git/ForkDSPH/DualSPHysics/src/source/JXml.h
CMakeFiles/DualSPHysics5.0_linux64.dir/JCaseEParms.cpp.o: /home/prashant/Documents/Git/ForkDSPH/DualSPHysics/src/source/TypesDef.h
CMakeFiles/DualSPHysics5.0_linux64.dir/JCaseEParms.cpp.o: /home/prashant/Documents/Git/ForkDSPH/DualSPHysics/src/source/tinystr.h
CMakeFiles/DualSPHysics5.0_linux64.dir/JCaseEParms.cpp.o: /home/prashant/Documents/Git/ForkDSPH/DualSPHysics/src/source/tinyxml.h

CMakeFiles/DualSPHysics5.0_linux64.dir/JCaseParts.cpp.o: /home/prashant/Documents/Git/ForkDSPH/DualSPHysics/src/source/Functions.h
CMakeFiles/DualSPHysics5.0_linux64.dir/JCaseParts.cpp.o: /home/prashant/Documents/Git/ForkDSPH/DualSPHysics/src/source/JCaseParts.cpp
CMakeFiles/DualSPHysics5.0_linux64.dir/JCaseParts.cpp.o: /home/prashant/Documents/Git/ForkDSPH/DualSPHysics/src/source/JCaseParts.h
CMakeFiles/DualSPHysics5.0_linux64.dir/JCaseParts.cpp.o: /home/prashant/Documents/Git/ForkDSPH/DualSPHysics/src/source/JCasePartsDef.h
CMakeFiles/DualSPHysics5.0_linux64.dir/JCaseParts.cpp.o: /home/prashant/Documents/Git/ForkDSPH/DualSPHysics/src/source/JCaseProperties.h
CMakeFiles/DualSPHysics5.0_linux64.dir/JCaseParts.cpp.o: /home/prashant/Documents/Git/ForkDSPH/DualSPHysics/src/source/JLinearValue.h
CMakeFiles/DualSPHysics5.0_linux64.dir/JCaseParts.cpp.o: /home/prashant/Documents/Git/ForkDSPH/DualSPHysics/src/source/JLinearValueDef.h
CMakeFiles/DualSPHysics5.0_linux64.dir/JCaseParts.cpp.o: /home/prashant/Documents/Git/ForkDSPH/DualSPHysics/src/source/JNumexLibDef.h
CMakeFiles/DualSPHysics5.0_linux64.dir/JCaseParts.cpp.o: /home/prashant/Documents/Git/ForkDSPH/DualSPHysics/src/source/JObject.h
CMakeFiles/DualSPHysics5.0_linux64.dir/JCaseParts.cpp.o: /home/prashant/Documents/Git/ForkDSPH/DualSPHysics/src/source/JParticlesDef.h
CMakeFiles/DualSPHysics5.0_linux64.dir/JCaseParts.cpp.o: /home/prashant/Documents/Git/ForkDSPH/DualSPHysics/src/source/JRangeFilter.h
CMakeFiles/DualSPHysics5.0_linux64.dir/JCaseParts.cpp.o: /home/prashant/Documents/Git/ForkDSPH/DualSPHysics/src/source/JXml.h
CMakeFiles/DualSPHysics5.0_linux64.dir/JCaseParts.cpp.o: /home/prashant/Documents/Git/ForkDSPH/DualSPHysics/src/source/TypesDef.h
CMakeFiles/DualSPHysics5.0_linux64.dir/JCaseParts.cpp.o: /home/prashant/Documents/Git/ForkDSPH/DualSPHysics/src/source/tinystr.h
CMakeFiles/DualSPHysics5.0_linux64.dir/JCaseParts.cpp.o: /home/prashant/Documents/Git/ForkDSPH/DualSPHysics/src/source/tinyxml.h

CMakeFiles/DualSPHysics5.0_linux64.dir/JCaseProperties.cpp.o: /home/prashant/Documents/Git/ForkDSPH/DualSPHysics/src/source/Functions.h
CMakeFiles/DualSPHysics5.0_linux64.dir/JCaseProperties.cpp.o: /home/prashant/Documents/Git/ForkDSPH/DualSPHysics/src/source/JCaseProperties.cpp
CMakeFiles/DualSPHysics5.0_linux64.dir/JCaseProperties.cpp.o: /home/prashant/Documents/Git/ForkDSPH/DualSPHysics/src/source/JCaseProperties.h
CMakeFiles/DualSPHysics5.0_linux64.dir/JCaseProperties.cpp.o: /home/prashant/Documents/Git/ForkDSPH/DualSPHysics/src/source/JNumexLibDef.h
CMakeFiles/DualSPHysics5.0_linux64.dir/JCaseProperties.cpp.o: /home/prashant/Documents/Git/ForkDSPH/DualSPHysics/src/source/JObject.h
CMakeFiles/DualSPHysics5.0_linux64.dir/JCaseProperties.cpp.o: /home/prashant/Documents/Git/ForkDSPH/DualSPHysics/src/source/JRangeFilter.h
CMakeFiles/DualSPHysics5.0_linux64.dir/JCaseProperties.cpp.o: /home/prashant/Documents/Git/ForkDSPH/DualSPHysics/src/source/JXml.h
CMakeFiles/DualSPHysics5.0_linux64.dir/JCaseProperties.cpp.o: /home/prashant/Documents/Git/ForkDSPH/DualSPHysics/src/source/TypesDef.h
CMakeFiles/DualSPHysics5.0_linux64.dir/JCaseProperties.cpp.o: /home/prashant/Documents/Git/ForkDSPH/DualSPHysics/src/source/tinystr.h
CMakeFiles/DualSPHysics5.0_linux64.dir/JCaseProperties.cpp.o: /home/prashant/Documents/Git/ForkDSPH/DualSPHysics/src/source/tinyxml.h

CMakeFiles/DualSPHysics5.0_linux64.dir/JCaseUserVars.cpp.o: /home/prashant/Documents/Git/ForkDSPH/DualSPHysics/src/source/Functions.h
CMakeFiles/DualSPHysics5.0_linux64.dir/JCaseUserVars.cpp.o: /home/prashant/Documents/Git/ForkDSPH/DualSPHysics/src/source/JCaseUserVars.cpp
CMakeFiles/DualSPHysics5.0_linux64.dir/JCaseUserVars.cpp.o: /home/prashant/Documents/Git/ForkDSPH/DualSPHysics/src/source/JCaseUserVars.h
CMakeFiles/DualSPHysics5.0_linux64.dir/JCaseUserVars.cpp.o: /home/prashant/Documents/Git/ForkDSPH/DualSPHysics/src/source/JNumexLib.h
CMakeFiles/DualSPHysics5.0_linux64.dir/JCaseUserVars.cpp.o: /home/prashant/Documents/Git/ForkDSPH/DualSPHysics/src/source/JNumexLibDef.h
CMakeFiles/DualSPHysics5.0_linux64.dir/JCaseUserVars.cpp.o: /home/prashant/Documents/Git/ForkDSPH/DualSPHysics/src/source/JNumexLibUndef.h
CMakeFiles/DualSPHysics5.0_linux64.dir/JCaseUserVars.cpp.o: /home/prashant/Documents/Git/ForkDSPH/DualSPHysics/src/source/JObject.h
CMakeFiles/DualSPHysics5.0_linux64.dir/JCaseUserVars.cpp.o: /home/prashant/Documents/Git/ForkDSPH/DualSPHysics/src/source/JXml.h
CMakeFiles/DualSPHysics5.0_linux64.dir/JCaseUserVars.cpp.o: /home/prashant/Documents/Git/ForkDSPH/DualSPHysics/src/source/TypesDef.h
CMakeFiles/DualSPHysics5.0_linux64.dir/JCaseUserVars.cpp.o: /home/prashant/Documents/Git/ForkDSPH/DualSPHysics/src/source/tinystr.h
CMakeFiles/DualSPHysics5.0_linux64.dir/JCaseUserVars.cpp.o: /home/prashant/Documents/Git/ForkDSPH/DualSPHysics/src/source/tinyxml.h

CMakeFiles/DualSPHysics5.0_linux64.dir/JCaseVtkOut.cpp.o: /home/prashant/Documents/Git/ForkDSPH/DualSPHysics/src/source/Functions.h
CMakeFiles/DualSPHysics5.0_linux64.dir/JCaseVtkOut.cpp.o: /home/prashant/Documents/Git/ForkDSPH/DualSPHysics/src/source/JCaseVtkOut.cpp
CMakeFiles/DualSPHysics5.0_linux64.dir/JCaseVtkOut.cpp.o: /home/prashant/Documents/Git/ForkDSPH/DualSPHysics/src/source/JCaseVtkOut.h
CMakeFiles/DualSPHysics5.0_linux64.dir/JCaseVtkOut.cpp.o: /home/prashant/Documents/Git/ForkDSPH/DualSPHysics/src/source/JNumexLibDef.h
CMakeFiles/DualSPHysics5.0_linux64.dir/JCaseVtkOut.cpp.o: /home/prashant/Documents/Git/ForkDSPH/DualSPHysics/src/source/JObject.h
CMakeFiles/DualSPHysics5.0_linux64.dir/JCaseVtkOut.cpp.o: /home/prashant/Documents/Git/ForkDSPH/DualSPHysics/src/source/JRangeFilter.h
CMakeFiles/DualSPHysics5.0_linux64.dir/JCaseVtkOut.cpp.o: /home/prashant/Documents/Git/ForkDSPH/DualSPHysics/src/source/JXml.h
CMakeFiles/DualSPHysics5.0_linux64.dir/JCaseVtkOut.cpp.o: /home/prashant/Documents/Git/ForkDSPH/DualSPHysics/src/source/TypesDef.h
CMakeFiles/DualSPHysics5.0_linux64.dir/JCaseVtkOut.cpp.o: /home/prashant/Documents/Git/ForkDSPH/DualSPHysics/src/source/tinystr.h
CMakeFiles/DualSPHysics5.0_linux64.dir/JCaseVtkOut.cpp.o: /home/prashant/Documents/Git/ForkDSPH/DualSPHysics/src/source/tinyxml.h

CMakeFiles/DualSPHysics5.0_linux64.dir/JCellDivCpu.cpp.o: /home/prashant/Documents/Git/ForkDSPH/DualSPHysics/src/source/DualSphDef.h
CMakeFiles/DualSPHysics5.0_linux64.dir/JCellDivCpu.cpp.o: /home/prashant/Documents/Git/ForkDSPH/DualSPHysics/src/source/FunSphKernelDef.h
CMakeFiles/DualSPHysics5.0_linux64.dir/JCellDivCpu.cpp.o: /home/prashant/Documents/Git/ForkDSPH/DualSPHysics/src/source/Functions.h
CMakeFiles/DualSPHysics5.0_linux64.dir/JCellDivCpu.cpp.o: /home/prashant/Documents/Git/ForkDSPH/DualSPHysics/src/source/JCellDivCpu.cpp
CMakeFiles/DualSPHysics5.0_linux64.dir/JCellDivCpu.cpp.o: /home/prashant/Documents/Git/ForkDSPH/DualSPHysics/src/source/JCellDivCpu.h
CMakeFiles/DualSPHysics5.0_linux64.dir/JCellDivCpu.cpp.o: /home/prashant/Documents/Git/ForkDSPH/DualSPHysics/src/source/JCellDivDataCpu.h
CMakeFiles/DualSPHysics5.0_linux64.dir/JCellDivCpu.cpp.o: /home/prashant/Documents/Git/ForkDSPH/DualSPHysics/src/source/JLog2.h
CMakeFiles/DualSPHysics5.0_linux64.dir/JCellDivCpu.cpp.o: /home/prashant/Documents/Git/ForkDSPH/DualSPHysics/src/source/JNumexLibDef.h
CMakeFiles/DualSPHysics5.0_linux64.dir/JCellDivCpu.cpp.o: /home/prashant/Documents/Git/ForkDSPH/DualSPHysics/src/source/JObject.h
CMakeFiles/DualSPHysics5.0_linux64.dir/JCellDivCpu.cpp.o: /home/prashant/Documents/Git/ForkDSPH/DualSPHysics/src/source/JParticlesDef.h
CMakeFiles/DualSPHysics5.0_linux64.dir/JCellDivCpu.cpp.o: /home/prashant/Documents/Git/ForkDSPH/DualSPHysics/src/source/JPeriodicDef.h
CMakeFiles/DualSPHysics5.0_linux64.dir/JCellDivCpu.cpp.o: /home/prashant/Documents/Git/ForkDSPH/DualSPHysics/src/source/JSphTimersCpu.h
CMakeFiles/DualSPHysics5.0_linux64.dir/JCellDivCpu.cpp.o: /home/prashant/Documents/Git/ForkDSPH/DualSPHysics/src/source/JTimer.h
CMakeFiles/DualSPHysics5.0_linux64.dir/JCellDivCpu.cpp.o: /home/prashant/Documents/Git/ForkDSPH/DualSPHysics/src/source/JVtkLibDef.h
CMakeFiles/DualSPHysics5.0_linux64.dir/JCellDivCpu.cpp.o: /home/prashant/Documents/Git/ForkDSPH/DualSPHysics/src/source/OmpDefs.h
CMakeFiles/DualSPHysics5.0_linux64.dir/JCellDivCpu.cpp.o: /home/prashant/Documents/Git/ForkDSPH/DualSPHysics/src/source/TypesDef.h

CMakeFiles/DualSPHysics5.0_linux64.dir/JCellDivCpuSingle.cpp.o: /home/prashant/Documents/Git/ForkDSPH/DualSPHysics/src/source/DualSphDef.h
CMakeFiles/DualSPHysics5.0_linux64.dir/JCellDivCpuSingle.cpp.o: /home/prashant/Documents/Git/ForkDSPH/DualSPHysics/src/source/FunSphKernelDef.h
CMakeFiles/DualSPHysics5.0_linux64.dir/JCellDivCpuSingle.cpp.o: /home/prashant/Documents/Git/ForkDSPH/DualSPHysics/src/source/Functions.h
CMakeFiles/DualSPHysics5.0_linux64.dir/JCellDivCpuSingle.cpp.o: /home/prashant/Documents/Git/ForkDSPH/DualSPHysics/src/source/JCellDivCpu.h
CMakeFiles/DualSPHysics5.0_linux64.dir/JCellDivCpuSingle.cpp.o: /home/prashant/Documents/Git/ForkDSPH/DualSPHysics/src/source/JCellDivCpuSingle.cpp
CMakeFiles/DualSPHysics5.0_linux64.dir/JCellDivCpuSingle.cpp.o: /home/prashant/Documents/Git/ForkDSPH/DualSPHysics/src/source/JCellDivCpuSingle.h
CMakeFiles/DualSPHysics5.0_linux64.dir/JCellDivCpuSingle.cpp.o: /home/prashant/Documents/Git/ForkDSPH/DualSPHysics/src/source/JCellDivDataCpu.h
CMakeFiles/DualSPHysics5.0_linux64.dir/JCellDivCpuSingle.cpp.o: /home/prashant/Documents/Git/ForkDSPH/DualSPHysics/src/source/JLog2.h
CMakeFiles/DualSPHysics5.0_linux64.dir/JCellDivCpuSingle.cpp.o: /home/prashant/Documents/Git/ForkDSPH/DualSPHysics/src/source/JNumexLibDef.h
CMakeFiles/DualSPHysics5.0_linux64.dir/JCellDivCpuSingle.cpp.o: /home/prashant/Documents/Git/ForkDSPH/DualSPHysics/src/source/JObject.h
CMakeFiles/DualSPHysics5.0_linux64.dir/JCellDivCpuSingle.cpp.o: /home/prashant/Documents/Git/ForkDSPH/DualSPHysics/src/source/JParticlesDef.h
CMakeFiles/DualSPHysics5.0_linux64.dir/JCellDivCpuSingle.cpp.o: /home/prashant/Documents/Git/ForkDSPH/DualSPHysics/src/source/JPeriodicDef.h
CMakeFiles/DualSPHysics5.0_linux64.dir/JCellDivCpuSingle.cpp.o: /home/prashant/Documents/Git/ForkDSPH/DualSPHysics/src/source/JSphTimersCpu.h
CMakeFiles/DualSPHysics5.0_linux64.dir/JCellDivCpuSingle.cpp.o: /home/prashant/Documents/Git/ForkDSPH/DualSPHysics/src/source/JTimer.h
CMakeFiles/DualSPHysics5.0_linux64.dir/JCellDivCpuSingle.cpp.o: /home/prashant/Documents/Git/ForkDSPH/DualSPHysics/src/source/JVtkLibDef.h
CMakeFiles/DualSPHysics5.0_linux64.dir/JCellDivCpuSingle.cpp.o: /home/prashant/Documents/Git/ForkDSPH/DualSPHysics/src/source/OmpDefs.h
CMakeFiles/DualSPHysics5.0_linux64.dir/JCellDivCpuSingle.cpp.o: /home/prashant/Documents/Git/ForkDSPH/DualSPHysics/src/source/TypesDef.h

CMakeFiles/DualSPHysics5.0_linux64.dir/JCellDivGpu.cpp.o: /home/prashant/Documents/Git/ForkDSPH/DualSPHysics/src/source/DualSphDef.h
CMakeFiles/DualSPHysics5.0_linux64.dir/JCellDivGpu.cpp.o: /home/prashant/Documents/Git/ForkDSPH/DualSPHysics/src/source/FunSphKernelDef.h
CMakeFiles/DualSPHysics5.0_linux64.dir/JCellDivGpu.cpp.o: /home/prashant/Documents/Git/ForkDSPH/DualSPHysics/src/source/Functions.h
CMakeFiles/DualSPHysics5.0_linux64.dir/JCellDivGpu.cpp.o: /home/prashant/Documents/Git/ForkDSPH/DualSPHysics/src/source/JCellDivGpu.cpp
CMakeFiles/DualSPHysics5.0_linux64.dir/JCellDivGpu.cpp.o: /home/prashant/Documents/Git/ForkDSPH/DualSPHysics/src/source/JCellDivGpu.h
CMakeFiles/DualSPHysics5.0_linux64.dir/JCellDivGpu.cpp.o: /home/prashant/Documents/Git/ForkDSPH/DualSPHysics/src/source/JCellDivGpu_ker.h
CMakeFiles/DualSPHysics5.0_linux64.dir/JCellDivGpu.cpp.o: /home/prashant/Documents/Git/ForkDSPH/DualSPHysics/src/source/JLog2.h
CMakeFiles/DualSPHysics5.0_linux64.dir/JCellDivGpu.cpp.o: /home/prashant/Documents/Git/ForkDSPH/DualSPHysics/src/source/JNumexLibDef.h
CMakeFiles/DualSPHysics5.0_linux64.dir/JCellDivGpu.cpp.o: /home/prashant/Documents/Git/ForkDSPH/DualSPHysics/src/source/JObject.h
CMakeFiles/DualSPHysics5.0_linux64.dir/JCellDivGpu.cpp.o: /home/prashant/Documents/Git/ForkDSPH/DualSPHysics/src/source/JObjectGpu.h
CMakeFiles/DualSPHysics5.0_linux64.dir/JCellDivGpu.cpp.o: /home/prashant/Documents/Git/ForkDSPH/DualSPHysics/src/source/JParticlesDef.h
CMakeFiles/DualSPHysics5.0_linux64.dir/JCellDivGpu.cpp.o: /home/prashant/Documents/Git/ForkDSPH/DualSPHysics/src/source/JPeriodicDef.h
CMakeFiles/DualSPHysics5.0_linux64.dir/JCellDivGpu.cpp.o: /home/prashant/Documents/Git/ForkDSPH/DualSPHysics/src/source/JSphTimersGpu.h
CMakeFiles/DualSPHysics5.0_linux64.dir/JCellDivGpu.cpp.o: /home/prashant/Documents/Git/ForkDSPH/DualSPHysics/src/source/JTimerCuda.h
CMakeFiles/DualSPHysics5.0_linux64.dir/JCellDivGpu.cpp.o: /home/prashant/Documents/Git/ForkDSPH/DualSPHysics/src/source/JVtkLibDef.h
CMakeFiles/DualSPHysics5.0_linux64.dir/JCellDivGpu.cpp.o: /home/prashant/Documents/Git/ForkDSPH/DualSPHysics/src/source/OmpDefs.h
CMakeFiles/DualSPHysics5.0_linux64.dir/JCellDivGpu.cpp.o: /home/prashant/Documents/Git/ForkDSPH/DualSPHysics/src/source/TypesDef.h
CMakeFiles/DualSPHysics5.0_linux64.dir/JCellDivGpu.cpp.o: /usr/local/cuda-10.1/include/builtin_types.h
CMakeFiles/DualSPHysics5.0_linux64.dir/JCellDivGpu.cpp.o: /usr/local/cuda-10.1/include/crt/host_defines.h
CMakeFiles/DualSPHysics5.0_linux64.dir/JCellDivGpu.cpp.o: /usr/local/cuda-10.1/include/cuda_device_runtime_api.h
CMakeFiles/DualSPHysics5.0_linux64.dir/JCellDivGpu.cpp.o: /usr/local/cuda-10.1/include/cuda_runtime_api.h
CMakeFiles/DualSPHysics5.0_linux64.dir/JCellDivGpu.cpp.o: /usr/local/cuda-10.1/include/device_types.h
CMakeFiles/DualSPHysics5.0_linux64.dir/JCellDivGpu.cpp.o: /usr/local/cuda-10.1/include/driver_types.h
CMakeFiles/DualSPHysics5.0_linux64.dir/JCellDivGpu.cpp.o: /usr/local/cuda-10.1/include/surface_types.h
CMakeFiles/DualSPHysics5.0_linux64.dir/JCellDivGpu.cpp.o: /usr/local/cuda-10.1/include/texture_types.h
CMakeFiles/DualSPHysics5.0_linux64.dir/JCellDivGpu.cpp.o: /usr/local/cuda-10.1/include/vector_types.h

CMakeFiles/DualSPHysics5.0_linux64.dir/JCellDivGpuSingle.cpp.o: /home/prashant/Documents/Git/ForkDSPH/DualSPHysics/src/source/DualSphDef.h
CMakeFiles/DualSPHysics5.0_linux64.dir/JCellDivGpuSingle.cpp.o: /home/prashant/Documents/Git/ForkDSPH/DualSPHysics/src/source/FunSphKernelDef.h
CMakeFiles/DualSPHysics5.0_linux64.dir/JCellDivGpuSingle.cpp.o: /home/prashant/Documents/Git/ForkDSPH/DualSPHysics/src/source/Functions.h
CMakeFiles/DualSPHysics5.0_linux64.dir/JCellDivGpuSingle.cpp.o: /home/prashant/Documents/Git/ForkDSPH/DualSPHysics/src/source/JCellDivDataGpu.h
CMakeFiles/DualSPHysics5.0_linux64.dir/JCellDivGpuSingle.cpp.o: /home/prashant/Documents/Git/ForkDSPH/DualSPHysics/src/source/JCellDivGpu.h
CMakeFiles/DualSPHysics5.0_linux64.dir/JCellDivGpuSingle.cpp.o: /home/prashant/Documents/Git/ForkDSPH/DualSPHysics/src/source/JCellDivGpuSingle.cpp
CMakeFiles/DualSPHysics5.0_linux64.dir/JCellDivGpuSingle.cpp.o: /home/prashant/Documents/Git/ForkDSPH/DualSPHysics/src/source/JCellDivGpuSingle.h
CMakeFiles/DualSPHysics5.0_linux64.dir/JCellDivGpuSingle.cpp.o: /home/prashant/Documents/Git/ForkDSPH/DualSPHysics/src/source/JCellDivGpuSingle_ker.h
CMakeFiles/DualSPHysics5.0_linux64.dir/JCellDivGpuSingle.cpp.o: /home/prashant/Documents/Git/ForkDSPH/DualSPHysics/src/source/JCellDivGpu_ker.h
CMakeFiles/DualSPHysics5.0_linux64.dir/JCellDivGpuSingle.cpp.o: /home/prashant/Documents/Git/ForkDSPH/DualSPHysics/src/source/JLog2.h
CMakeFiles/DualSPHysics5.0_linux64.dir/JCellDivGpuSingle.cpp.o: /home/prashant/Documents/Git/ForkDSPH/DualSPHysics/src/source/JNumexLibDef.h
CMakeFiles/DualSPHysics5.0_linux64.dir/JCellDivGpuSingle.cpp.o: /home/prashant/Documents/Git/ForkDSPH/DualSPHysics/src/source/JObject.h
CMakeFiles/DualSPHysics5.0_linux64.dir/JCellDivGpuSingle.cpp.o: /home/prashant/Documents/Git/ForkDSPH/DualSPHysics/src/source/JObjectGpu.h
CMakeFiles/DualSPHysics5.0_linux64.dir/JCellDivGpuSingle.cpp.o: /home/prashant/Documents/Git/ForkDSPH/DualSPHysics/src/source/JParticlesDef.h
CMakeFiles/DualSPHysics5.0_linux64.dir/JCellDivGpuSingle.cpp.o: /home/prashant/Documents/Git/ForkDSPH/DualSPHysics/src/source/JPeriodicDef.h
CMakeFiles/DualSPHysics5.0_linux64.dir/JCellDivGpuSingle.cpp.o: /home/prashant/Documents/Git/ForkDSPH/DualSPHysics/src/source/JSphTimersGpu.h
CMakeFiles/DualSPHysics5.0_linux64.dir/JCellDivGpuSingle.cpp.o: /home/prashant/Documents/Git/ForkDSPH/DualSPHysics/src/source/JTimerCuda.h
CMakeFiles/DualSPHysics5.0_linux64.dir/JCellDivGpuSingle.cpp.o: /home/prashant/Documents/Git/ForkDSPH/DualSPHysics/src/source/JVtkLibDef.h
CMakeFiles/DualSPHysics5.0_linux64.dir/JCellDivGpuSingle.cpp.o: /home/prashant/Documents/Git/ForkDSPH/DualSPHysics/src/source/OmpDefs.h
CMakeFiles/DualSPHysics5.0_linux64.dir/JCellDivGpuSingle.cpp.o: /home/prashant/Documents/Git/ForkDSPH/DualSPHysics/src/source/TypesDef.h
CMakeFiles/DualSPHysics5.0_linux64.dir/JCellDivGpuSingle.cpp.o: /usr/local/cuda-10.1/include/builtin_types.h
CMakeFiles/DualSPHysics5.0_linux64.dir/JCellDivGpuSingle.cpp.o: /usr/local/cuda-10.1/include/crt/host_defines.h
CMakeFiles/DualSPHysics5.0_linux64.dir/JCellDivGpuSingle.cpp.o: /usr/local/cuda-10.1/include/cuda_device_runtime_api.h
CMakeFiles/DualSPHysics5.0_linux64.dir/JCellDivGpuSingle.cpp.o: /usr/local/cuda-10.1/include/cuda_runtime_api.h
CMakeFiles/DualSPHysics5.0_linux64.dir/JCellDivGpuSingle.cpp.o: /usr/local/cuda-10.1/include/device_types.h
CMakeFiles/DualSPHysics5.0_linux64.dir/JCellDivGpuSingle.cpp.o: /usr/local/cuda-10.1/include/driver_types.h
CMakeFiles/DualSPHysics5.0_linux64.dir/JCellDivGpuSingle.cpp.o: /usr/local/cuda-10.1/include/surface_types.h
CMakeFiles/DualSPHysics5.0_linux64.dir/JCellDivGpuSingle.cpp.o: /usr/local/cuda-10.1/include/texture_types.h
CMakeFiles/DualSPHysics5.0_linux64.dir/JCellDivGpuSingle.cpp.o: /usr/local/cuda-10.1/include/vector_types.h

CMakeFiles/DualSPHysics5.0_linux64.dir/JCfgRunBase.cpp.o: /home/prashant/Documents/Git/ForkDSPH/DualSPHysics/src/source/Functions.h
CMakeFiles/DualSPHysics5.0_linux64.dir/JCfgRunBase.cpp.o: /home/prashant/Documents/Git/ForkDSPH/DualSPHysics/src/source/JAppInfo.h
CMakeFiles/DualSPHysics5.0_linux64.dir/JCfgRunBase.cpp.o: /home/prashant/Documents/Git/ForkDSPH/DualSPHysics/src/source/JAppInfoDef.h
CMakeFiles/DualSPHysics5.0_linux64.dir/JCfgRunBase.cpp.o: /home/prashant/Documents/Git/ForkDSPH/DualSPHysics/src/source/JCfgRunBase.cpp
CMakeFiles/DualSPHysics5.0_linux64.dir/JCfgRunBase.cpp.o: /home/prashant/Documents/Git/ForkDSPH/DualSPHysics/src/source/JCfgRunBase.h
CMakeFiles/DualSPHysics5.0_linux64.dir/JCfgRunBase.cpp.o: /home/prashant/Documents/Git/ForkDSPH/DualSPHysics/src/source/JDsphConfig.h
CMakeFiles/DualSPHysics5.0_linux64.dir/JCfgRunBase.cpp.o: /home/prashant/Documents/Git/ForkDSPH/DualSPHysics/src/source/JObject.h
CMakeFiles/DualSPHysics5.0_linux64.dir/JCfgRunBase.cpp.o: /home/prashant/Documents/Git/ForkDSPH/DualSPHysics/src/source/TypesDef.h

CMakeFiles/DualSPHysics5.0_linux64.dir/JChronoObjects.cpp.o: /home/prashant/Documents/Git/ForkDSPH/DualSPHysics/src/source/DSPHChronoLib.h
CMakeFiles/DualSPHysics5.0_linux64.dir/JChronoObjects.cpp.o: /home/prashant/Documents/Git/ForkDSPH/DualSPHysics/src/source/DualSphDef.h
CMakeFiles/DualSPHysics5.0_linux64.dir/JChronoObjects.cpp.o: /home/prashant/Documents/Git/ForkDSPH/DualSPHysics/src/source/FunSphKernelDef.h
CMakeFiles/DualSPHysics5.0_linux64.dir/JChronoObjects.cpp.o: /home/prashant/Documents/Git/ForkDSPH/DualSPHysics/src/source/Functions.h
CMakeFiles/DualSPHysics5.0_linux64.dir/JChronoObjects.cpp.o: /home/prashant/Documents/Git/ForkDSPH/DualSPHysics/src/source/FunctionsGeo3d.h
CMakeFiles/DualSPHysics5.0_linux64.dir/JChronoObjects.cpp.o: /home/prashant/Documents/Git/ForkDSPH/DualSPHysics/src/source/JAppInfo.h
CMakeFiles/DualSPHysics5.0_linux64.dir/JChronoObjects.cpp.o: /home/prashant/Documents/Git/ForkDSPH/DualSPHysics/src/source/JAppInfoDef.h
CMakeFiles/DualSPHysics5.0_linux64.dir/JChronoObjects.cpp.o: /home/prashant/Documents/Git/ForkDSPH/DualSPHysics/src/source/JCaseParts.h
CMakeFiles/DualSPHysics5.0_linux64.dir/JChronoObjects.cpp.o: /home/prashant/Documents/Git/ForkDSPH/DualSPHysics/src/source/JCasePartsDef.h
CMakeFiles/DualSPHysics5.0_linux64.dir/JChronoObjects.cpp.o: /home/prashant/Documents/Git/ForkDSPH/DualSPHysics/src/source/JCaseVtkOut.h
CMakeFiles/DualSPHysics5.0_linux64.dir/JChronoObjects.cpp.o: /home/prashant/Documents/Git/ForkDSPH/DualSPHysics/src/source/JChronoData.h
CMakeFiles/DualSPHysics5.0_linux64.dir/JChronoObjects.cpp.o: /home/prashant/Documents/Git/ForkDSPH/DualSPHysics/src/source/JChronoObjects.cpp
CMakeFiles/DualSPHysics5.0_linux64.dir/JChronoObjects.cpp.o: /home/prashant/Documents/Git/ForkDSPH/DualSPHysics/src/source/JChronoObjects.h
CMakeFiles/DualSPHysics5.0_linux64.dir/JChronoObjects.cpp.o: /home/prashant/Documents/Git/ForkDSPH/DualSPHysics/src/source/JChronoObjectsUndef.h
CMakeFiles/DualSPHysics5.0_linux64.dir/JChronoObjects.cpp.o: /home/prashant/Documents/Git/ForkDSPH/DualSPHysics/src/source/JDataArrays.h
CMakeFiles/DualSPHysics5.0_linux64.dir/JChronoObjects.cpp.o: /home/prashant/Documents/Git/ForkDSPH/DualSPHysics/src/source/JLog2.h
CMakeFiles/DualSPHysics5.0_linux64.dir/JChronoObjects.cpp.o: /home/prashant/Documents/Git/ForkDSPH/DualSPHysics/src/source/JNumexLibDef.h
CMakeFiles/DualSPHysics5.0_linux64.dir/JChronoObjects.cpp.o: /home/prashant/Documents/Git/ForkDSPH/DualSPHysics/src/source/JObject.h
CMakeFiles/DualSPHysics5.0_linux64.dir/JChronoObjects.cpp.o: /home/prashant/Documents/Git/ForkDSPH/DualSPHysics/src/source/JParticlesDef.h
CMakeFiles/DualSPHysics5.0_linux64.dir/JChronoObjects.cpp.o: /home/prashant/Documents/Git/ForkDSPH/DualSPHysics/src/source/JPeriodicDef.h
CMakeFiles/DualSPHysics5.0_linux64.dir/JChronoObjects.cpp.o: /home/prashant/Documents/Git/ForkDSPH/DualSPHysics/src/source/JRangeFilter.h
CMakeFiles/DualSPHysics5.0_linux64.dir/JChronoObjects.cpp.o: /home/prashant/Documents/Git/ForkDSPH/DualSPHysics/src/source/JSaveCsv2.h
CMakeFiles/DualSPHysics5.0_linux64.dir/JChronoObjects.cpp.o: /home/prashant/Documents/Git/ForkDSPH/DualSPHysics/src/source/JSphMk.h
CMakeFiles/DualSPHysics5.0_linux64.dir/JChronoObjects.cpp.o: /home/prashant/Documents/Git/ForkDSPH/DualSPHysics/src/source/JVtkLib.h
CMakeFiles/DualSPHysics5.0_linux64.dir/JChronoObjects.cpp.o: /home/prashant/Documents/Git/ForkDSPH/DualSPHysics/src/source/JVtkLibDef.h
CMakeFiles/DualSPHysics5.0_linux64.dir/JChronoObjects.cpp.o: /home/prashant/Documents/Git/ForkDSPH/DualSPHysics/src/source/JVtkLibUndef.h
CMakeFiles/DualSPHysics5.0_linux64.dir/JChronoObjects.cpp.o: /home/prashant/Documents/Git/ForkDSPH/DualSPHysics/src/source/JXml.h
CMakeFiles/DualSPHysics5.0_linux64.dir/JChronoObjects.cpp.o: /home/prashant/Documents/Git/ForkDSPH/DualSPHysics/src/source/OmpDefs.h
CMakeFiles/DualSPHysics5.0_linux64.dir/JChronoObjects.cpp.o: /home/prashant/Documents/Git/ForkDSPH/DualSPHysics/src/source/TypesDef.h
CMakeFiles/DualSPHysics5.0_linux64.dir/JChronoObjects.cpp.o: /home/prashant/Documents/Git/ForkDSPH/DualSPHysics/src/source/tinystr.h
CMakeFiles/DualSPHysics5.0_linux64.dir/JChronoObjects.cpp.o: /home/prashant/Documents/Git/ForkDSPH/DualSPHysics/src/source/tinyxml.h

CMakeFiles/DualSPHysics5.0_linux64.dir/JDataArrays.cpp.o: /home/prashant/Documents/Git/ForkDSPH/DualSPHysics/src/source/Functions.h
CMakeFiles/DualSPHysics5.0_linux64.dir/JDataArrays.cpp.o: /home/prashant/Documents/Git/ForkDSPH/DualSPHysics/src/source/JDataArrays.cpp
CMakeFiles/DualSPHysics5.0_linux64.dir/JDataArrays.cpp.o: /home/prashant/Documents/Git/ForkDSPH/DualSPHysics/src/source/JDataArrays.h
CMakeFiles/DualSPHysics5.0_linux64.dir/JDataArrays.cpp.o: /home/prashant/Documents/Git/ForkDSPH/DualSPHysics/src/source/JException.h
CMakeFiles/DualSPHysics5.0_linux64.dir/JDataArrays.cpp.o: /home/prashant/Documents/Git/ForkDSPH/DualSPHysics/src/source/JObject.h
CMakeFiles/DualSPHysics5.0_linux64.dir/JDataArrays.cpp.o: /home/prashant/Documents/Git/ForkDSPH/DualSPHysics/src/source/TypesDef.h

CMakeFiles/DualSPHysics5.0_linux64.dir/JDebugSphGpu.cpp.o: /home/prashant/Documents/Git/ForkDSPH/DualSPHysics/src/source/DualSphDef.h
CMakeFiles/DualSPHysics5.0_linux64.dir/JDebugSphGpu.cpp.o: /home/prashant/Documents/Git/ForkDSPH/DualSPHysics/src/source/FunSphKernelDef.h
CMakeFiles/DualSPHysics5.0_linux64.dir/JDebugSphGpu.cpp.o: /home/prashant/Documents/Git/ForkDSPH/DualSPHysics/src/source/Functions.h
CMakeFiles/DualSPHysics5.0_linux64.dir/JDebugSphGpu.cpp.o: /home/prashant/Documents/Git/ForkDSPH/DualSPHysics/src/source/FunctionsCuda.h
CMakeFiles/DualSPHysics5.0_linux64.dir/JDebugSphGpu.cpp.o: /home/prashant/Documents/Git/ForkDSPH/DualSPHysics/src/source/JAppInfo.h
CMakeFiles/DualSPHysics5.0_linux64.dir/JDebugSphGpu.cpp.o: /home/prashant/Documents/Git/ForkDSPH/DualSPHysics/src/source/JAppInfoDef.h
CMakeFiles/DualSPHysics5.0_linux64.dir/JDebugSphGpu.cpp.o: /home/prashant/Documents/Git/ForkDSPH/DualSPHysics/src/source/JCellDivDataGpu.h
CMakeFiles/DualSPHysics5.0_linux64.dir/JDebugSphGpu.cpp.o: /home/prashant/Documents/Git/ForkDSPH/DualSPHysics/src/source/JCfgRunBase.h
CMakeFiles/DualSPHysics5.0_linux64.dir/JDebugSphGpu.cpp.o: /home/prashant/Documents/Git/ForkDSPH/DualSPHysics/src/source/JDataArrays.h
CMakeFiles/DualSPHysics5.0_linux64.dir/JDebugSphGpu.cpp.o: /home/prashant/Documents/Git/ForkDSPH/DualSPHysics/src/source/JDebugSphGpu.cpp
CMakeFiles/DualSPHysics5.0_linux64.dir/JDebugSphGpu.cpp.o: /home/prashant/Documents/Git/ForkDSPH/DualSPHysics/src/source/JDebugSphGpu.h
CMakeFiles/DualSPHysics5.0_linux64.dir/JDebugSphGpu.cpp.o: /home/prashant/Documents/Git/ForkDSPH/DualSPHysics/src/source/JException.h
CMakeFiles/DualSPHysics5.0_linux64.dir/JDebugSphGpu.cpp.o: /home/prashant/Documents/Git/ForkDSPH/DualSPHysics/src/source/JLog2.h
CMakeFiles/DualSPHysics5.0_linux64.dir/JDebugSphGpu.cpp.o: /home/prashant/Documents/Git/ForkDSPH/DualSPHysics/src/source/JNumexLibDef.h
CMakeFiles/DualSPHysics5.0_linux64.dir/JDebugSphGpu.cpp.o: /home/prashant/Documents/Git/ForkDSPH/DualSPHysics/src/source/JObject.h
CMakeFiles/DualSPHysics5.0_linux64.dir/JDebugSphGpu.cpp.o: /home/prashant/Documents/Git/ForkDSPH/DualSPHysics/src/source/JParticlesDef.h
CMakeFiles/DualSPHysics5.0_linux64.dir/JDebugSphGpu.cpp.o: /home/prashant/Documents/Git/ForkDSPH/DualSPHysics/src/source/JPeriodicDef.h
CMakeFiles/DualSPHysics5.0_linux64.dir/JDebugSphGpu.cpp.o: /home/prashant/Documents/Git/ForkDSPH/DualSPHysics/src/source/JSph.h
CMakeFiles/DualSPHysics5.0_linux64.dir/JDebugSphGpu.cpp.o: /home/prashant/Documents/Git/ForkDSPH/DualSPHysics/src/source/JSphCfgRun.h
CMakeFiles/DualSPHysics5.0_linux64.dir/JDebugSphGpu.cpp.o: /home/prashant/Documents/Git/ForkDSPH/DualSPHysics/src/source/JSphGpu.h
CMakeFiles/DualSPHysics5.0_linux64.dir/JDebugSphGpu.cpp.o: /home/prashant/Documents/Git/ForkDSPH/DualSPHysics/src/source/JSphGpuSingle.h
CMakeFiles/DualSPHysics5.0_linux64.dir/JDebugSphGpu.cpp.o: /home/prashant/Documents/Git/ForkDSPH/DualSPHysics/src/source/JSphTimersGpu.h
CMakeFiles/DualSPHysics5.0_linux64.dir/JDebugSphGpu.cpp.o: /home/prashant/Documents/Git/ForkDSPH/DualSPHysics/src/source/JTimer.h
CMakeFiles/DualSPHysics5.0_linux64.dir/JDebugSphGpu.cpp.o: /home/prashant/Documents/Git/ForkDSPH/DualSPHysics/src/source/JTimerCuda.h
CMakeFiles/DualSPHysics5.0_linux64.dir/JDebugSphGpu.cpp.o: /home/prashant/Documents/Git/ForkDSPH/DualSPHysics/src/source/JVtkLib.h
CMakeFiles/DualSPHysics5.0_linux64.dir/JDebugSphGpu.cpp.o: /home/prashant/Documents/Git/ForkDSPH/DualSPHysics/src/source/JVtkLibDef.h
CMakeFiles/DualSPHysics5.0_linux64.dir/JDebugSphGpu.cpp.o: /home/prashant/Documents/Git/ForkDSPH/DualSPHysics/src/source/JVtkLibUndef.h
CMakeFiles/DualSPHysics5.0_linux64.dir/JDebugSphGpu.cpp.o: /home/prashant/Documents/Git/ForkDSPH/DualSPHysics/src/source/OmpDefs.h
CMakeFiles/DualSPHysics5.0_linux64.dir/JDebugSphGpu.cpp.o: /home/prashant/Documents/Git/ForkDSPH/DualSPHysics/src/source/TypesDef.h
CMakeFiles/DualSPHysics5.0_linux64.dir/JDebugSphGpu.cpp.o: /usr/local/cuda-10.1/include/builtin_types.h
CMakeFiles/DualSPHysics5.0_linux64.dir/JDebugSphGpu.cpp.o: /usr/local/cuda-10.1/include/crt/host_defines.h
CMakeFiles/DualSPHysics5.0_linux64.dir/JDebugSphGpu.cpp.o: /usr/local/cuda-10.1/include/cuda_device_runtime_api.h
CMakeFiles/DualSPHysics5.0_linux64.dir/JDebugSphGpu.cpp.o: /usr/local/cuda-10.1/include/cuda_runtime_api.h
CMakeFiles/DualSPHysics5.0_linux64.dir/JDebugSphGpu.cpp.o: /usr/local/cuda-10.1/include/device_types.h
CMakeFiles/DualSPHysics5.0_linux64.dir/JDebugSphGpu.cpp.o: /usr/local/cuda-10.1/include/driver_types.h
CMakeFiles/DualSPHysics5.0_linux64.dir/JDebugSphGpu.cpp.o: /usr/local/cuda-10.1/include/surface_types.h
CMakeFiles/DualSPHysics5.0_linux64.dir/JDebugSphGpu.cpp.o: /usr/local/cuda-10.1/include/texture_types.h
CMakeFiles/DualSPHysics5.0_linux64.dir/JDebugSphGpu.cpp.o: /usr/local/cuda-10.1/include/vector_types.h

CMakeFiles/DualSPHysics5.0_linux64.dir/JDsAccInput.cpp.o: /home/prashant/Documents/Git/ForkDSPH/DualSPHysics/src/source/DualSphDef.h
CMakeFiles/DualSPHysics5.0_linux64.dir/JDsAccInput.cpp.o: /home/prashant/Documents/Git/ForkDSPH/DualSPHysics/src/source/FunSphKernelDef.h
CMakeFiles/DualSPHysics5.0_linux64.dir/JDsAccInput.cpp.o: /home/prashant/Documents/Git/ForkDSPH/DualSPHysics/src/source/Functions.h
CMakeFiles/DualSPHysics5.0_linux64.dir/JDsAccInput.cpp.o: /home/prashant/Documents/Git/ForkDSPH/DualSPHysics/src/source/JDsAccInput.cpp
CMakeFiles/DualSPHysics5.0_linux64.dir/JDsAccInput.cpp.o: /home/prashant/Documents/Git/ForkDSPH/DualSPHysics/src/source/JDsAccInput.h
CMakeFiles/DualSPHysics5.0_linux64.dir/JDsAccInput.cpp.o: /home/prashant/Documents/Git/ForkDSPH/DualSPHysics/src/source/JDsAccInput_ker.h
CMakeFiles/DualSPHysics5.0_linux64.dir/JDsAccInput.cpp.o: /home/prashant/Documents/Git/ForkDSPH/DualSPHysics/src/source/JLinearValue.h
CMakeFiles/DualSPHysics5.0_linux64.dir/JDsAccInput.cpp.o: /home/prashant/Documents/Git/ForkDSPH/DualSPHysics/src/source/JLinearValueDef.h
CMakeFiles/DualSPHysics5.0_linux64.dir/JDsAccInput.cpp.o: /home/prashant/Documents/Git/ForkDSPH/DualSPHysics/src/source/JLog2.h
CMakeFiles/DualSPHysics5.0_linux64.dir/JDsAccInput.cpp.o: /home/prashant/Documents/Git/ForkDSPH/DualSPHysics/src/source/JNumexLibDef.h
CMakeFiles/DualSPHysics5.0_linux64.dir/JDsAccInput.cpp.o: /home/prashant/Documents/Git/ForkDSPH/DualSPHysics/src/source/JObject.h
CMakeFiles/DualSPHysics5.0_linux64.dir/JDsAccInput.cpp.o: /home/prashant/Documents/Git/ForkDSPH/DualSPHysics/src/source/JParticlesDef.h
CMakeFiles/DualSPHysics5.0_linux64.dir/JDsAccInput.cpp.o: /home/prashant/Documents/Git/ForkDSPH/DualSPHysics/src/source/JPeriodicDef.h
CMakeFiles/DualSPHysics5.0_linux64.dir/JDsAccInput.cpp.o: /home/prashant/Documents/Git/ForkDSPH/DualSPHysics/src/source/JRangeFilter.h
CMakeFiles/DualSPHysics5.0_linux64.dir/JDsAccInput.cpp.o: /home/prashant/Documents/Git/ForkDSPH/DualSPHysics/src/source/JSphMk.h
CMakeFiles/DualSPHysics5.0_linux64.dir/JDsAccInput.cpp.o: /home/prashant/Documents/Git/ForkDSPH/DualSPHysics/src/source/JVtkLibDef.h
CMakeFiles/DualSPHysics5.0_linux64.dir/JDsAccInput.cpp.o: /home/prashant/Documents/Git/ForkDSPH/DualSPHysics/src/source/JXml.h
CMakeFiles/DualSPHysics5.0_linux64.dir/JDsAccInput.cpp.o: /home/prashant/Documents/Git/ForkDSPH/DualSPHysics/src/source/OmpDefs.h
CMakeFiles/DualSPHysics5.0_linux64.dir/JDsAccInput.cpp.o: /home/prashant/Documents/Git/ForkDSPH/DualSPHysics/src/source/TypesDef.h
CMakeFiles/DualSPHysics5.0_linux64.dir/JDsAccInput.cpp.o: /home/prashant/Documents/Git/ForkDSPH/DualSPHysics/src/source/tinystr.h
CMakeFiles/DualSPHysics5.0_linux64.dir/JDsAccInput.cpp.o: /home/prashant/Documents/Git/ForkDSPH/DualSPHysics/src/source/tinyxml.h
CMakeFiles/DualSPHysics5.0_linux64.dir/JDsAccInput.cpp.o: /usr/local/cuda-10.1/include/builtin_types.h
CMakeFiles/DualSPHysics5.0_linux64.dir/JDsAccInput.cpp.o: /usr/local/cuda-10.1/include/crt/host_defines.h
CMakeFiles/DualSPHysics5.0_linux64.dir/JDsAccInput.cpp.o: /usr/local/cuda-10.1/include/cuda_device_runtime_api.h
CMakeFiles/DualSPHysics5.0_linux64.dir/JDsAccInput.cpp.o: /usr/local/cuda-10.1/include/cuda_runtime_api.h
CMakeFiles/DualSPHysics5.0_linux64.dir/JDsAccInput.cpp.o: /usr/local/cuda-10.1/include/device_types.h
CMakeFiles/DualSPHysics5.0_linux64.dir/JDsAccInput.cpp.o: /usr/local/cuda-10.1/include/driver_types.h
CMakeFiles/DualSPHysics5.0_linux64.dir/JDsAccInput.cpp.o: /usr/local/cuda-10.1/include/surface_types.h
CMakeFiles/DualSPHysics5.0_linux64.dir/JDsAccInput.cpp.o: /usr/local/cuda-10.1/include/texture_types.h
CMakeFiles/DualSPHysics5.0_linux64.dir/JDsAccInput.cpp.o: /usr/local/cuda-10.1/include/vector_types.h

CMakeFiles/DualSPHysics5.0_linux64.dir/JDsDamping.cpp.o: /home/prashant/Documents/Git/ForkDSPH/DualSPHysics/src/source/DualSphDef.h
CMakeFiles/DualSPHysics5.0_linux64.dir/JDsDamping.cpp.o: /home/prashant/Documents/Git/ForkDSPH/DualSPHysics/src/source/FunSphKernelDef.h
CMakeFiles/DualSPHysics5.0_linux64.dir/JDsDamping.cpp.o: /home/prashant/Documents/Git/ForkDSPH/DualSPHysics/src/source/Functions.h
CMakeFiles/DualSPHysics5.0_linux64.dir/JDsDamping.cpp.o: /home/prashant/Documents/Git/ForkDSPH/DualSPHysics/src/source/FunctionsGeo3d.h
CMakeFiles/DualSPHysics5.0_linux64.dir/JDsDamping.cpp.o: /home/prashant/Documents/Git/ForkDSPH/DualSPHysics/src/source/JAppInfo.h
CMakeFiles/DualSPHysics5.0_linux64.dir/JDsDamping.cpp.o: /home/prashant/Documents/Git/ForkDSPH/DualSPHysics/src/source/JAppInfoDef.h
CMakeFiles/DualSPHysics5.0_linux64.dir/JDsDamping.cpp.o: /home/prashant/Documents/Git/ForkDSPH/DualSPHysics/src/source/JDataArrays.h
CMakeFiles/DualSPHysics5.0_linux64.dir/JDsDamping.cpp.o: /home/prashant/Documents/Git/ForkDSPH/DualSPHysics/src/source/JDsDamping.cpp
CMakeFiles/DualSPHysics5.0_linux64.dir/JDsDamping.cpp.o: /home/prashant/Documents/Git/ForkDSPH/DualSPHysics/src/source/JDsDamping.h
CMakeFiles/DualSPHysics5.0_linux64.dir/JDsDamping.cpp.o: /home/prashant/Documents/Git/ForkDSPH/DualSPHysics/src/source/JLog2.h
CMakeFiles/DualSPHysics5.0_linux64.dir/JDsDamping.cpp.o: /home/prashant/Documents/Git/ForkDSPH/DualSPHysics/src/source/JNumexLibDef.h
CMakeFiles/DualSPHysics5.0_linux64.dir/JDsDamping.cpp.o: /home/prashant/Documents/Git/ForkDSPH/DualSPHysics/src/source/JObject.h
CMakeFiles/DualSPHysics5.0_linux64.dir/JDsDamping.cpp.o: /home/prashant/Documents/Git/ForkDSPH/DualSPHysics/src/source/JParticlesDef.h
CMakeFiles/DualSPHysics5.0_linux64.dir/JDsDamping.cpp.o: /home/prashant/Documents/Git/ForkDSPH/DualSPHysics/src/source/JPeriodicDef.h
CMakeFiles/DualSPHysics5.0_linux64.dir/JDsDamping.cpp.o: /home/prashant/Documents/Git/ForkDSPH/DualSPHysics/src/source/JVtkLib.h
CMakeFiles/DualSPHysics5.0_linux64.dir/JDsDamping.cpp.o: /home/prashant/Documents/Git/ForkDSPH/DualSPHysics/src/source/JVtkLibDef.h
CMakeFiles/DualSPHysics5.0_linux64.dir/JDsDamping.cpp.o: /home/prashant/Documents/Git/ForkDSPH/DualSPHysics/src/source/JVtkLibUndef.h
CMakeFiles/DualSPHysics5.0_linux64.dir/JDsDamping.cpp.o: /home/prashant/Documents/Git/ForkDSPH/DualSPHysics/src/source/JXml.h
CMakeFiles/DualSPHysics5.0_linux64.dir/JDsDamping.cpp.o: /home/prashant/Documents/Git/ForkDSPH/DualSPHysics/src/source/OmpDefs.h
CMakeFiles/DualSPHysics5.0_linux64.dir/JDsDamping.cpp.o: /home/prashant/Documents/Git/ForkDSPH/DualSPHysics/src/source/TypesDef.h
CMakeFiles/DualSPHysics5.0_linux64.dir/JDsDamping.cpp.o: /home/prashant/Documents/Git/ForkDSPH/DualSPHysics/src/source/tinystr.h
CMakeFiles/DualSPHysics5.0_linux64.dir/JDsDamping.cpp.o: /home/prashant/Documents/Git/ForkDSPH/DualSPHysics/src/source/tinyxml.h

CMakeFiles/DualSPHysics5.0_linux64.dir/JDsFixedDt.cpp.o: /home/prashant/Documents/Git/ForkDSPH/DualSPHysics/src/source/DualSphDef.h
CMakeFiles/DualSPHysics5.0_linux64.dir/JDsFixedDt.cpp.o: /home/prashant/Documents/Git/ForkDSPH/DualSPHysics/src/source/FunSphKernelDef.h
CMakeFiles/DualSPHysics5.0_linux64.dir/JDsFixedDt.cpp.o: /home/prashant/Documents/Git/ForkDSPH/DualSPHysics/src/source/Functions.h
CMakeFiles/DualSPHysics5.0_linux64.dir/JDsFixedDt.cpp.o: /home/prashant/Documents/Git/ForkDSPH/DualSPHysics/src/source/JDsFixedDt.cpp
CMakeFiles/DualSPHysics5.0_linux64.dir/JDsFixedDt.cpp.o: /home/prashant/Documents/Git/ForkDSPH/DualSPHysics/src/source/JDsFixedDt.h
CMakeFiles/DualSPHysics5.0_linux64.dir/JDsFixedDt.cpp.o: /home/prashant/Documents/Git/ForkDSPH/DualSPHysics/src/source/JNumexLibDef.h
CMakeFiles/DualSPHysics5.0_linux64.dir/JDsFixedDt.cpp.o: /home/prashant/Documents/Git/ForkDSPH/DualSPHysics/src/source/JObject.h
CMakeFiles/DualSPHysics5.0_linux64.dir/JDsFixedDt.cpp.o: /home/prashant/Documents/Git/ForkDSPH/DualSPHysics/src/source/JParticlesDef.h
CMakeFiles/DualSPHysics5.0_linux64.dir/JDsFixedDt.cpp.o: /home/prashant/Documents/Git/ForkDSPH/DualSPHysics/src/source/JPeriodicDef.h
CMakeFiles/DualSPHysics5.0_linux64.dir/JDsFixedDt.cpp.o: /home/prashant/Documents/Git/ForkDSPH/DualSPHysics/src/source/JReadDatafile.h
CMakeFiles/DualSPHysics5.0_linux64.dir/JDsFixedDt.cpp.o: /home/prashant/Documents/Git/ForkDSPH/DualSPHysics/src/source/JTimer.h
CMakeFiles/DualSPHysics5.0_linux64.dir/JDsFixedDt.cpp.o: /home/prashant/Documents/Git/ForkDSPH/DualSPHysics/src/source/JVtkLibDef.h
CMakeFiles/DualSPHysics5.0_linux64.dir/JDsFixedDt.cpp.o: /home/prashant/Documents/Git/ForkDSPH/DualSPHysics/src/source/OmpDefs.h
CMakeFiles/DualSPHysics5.0_linux64.dir/JDsFixedDt.cpp.o: /home/prashant/Documents/Git/ForkDSPH/DualSPHysics/src/source/TypesDef.h

CMakeFiles/DualSPHysics5.0_linux64.dir/JDsFtForcePoints.cpp.o: /home/prashant/Documents/Git/ForkDSPH/DualSPHysics/src/source/DualSphDef.h
CMakeFiles/DualSPHysics5.0_linux64.dir/JDsFtForcePoints.cpp.o: /home/prashant/Documents/Git/ForkDSPH/DualSPHysics/src/source/FunSphKernelDef.h
CMakeFiles/DualSPHysics5.0_linux64.dir/JDsFtForcePoints.cpp.o: /home/prashant/Documents/Git/ForkDSPH/DualSPHysics/src/source/Functions.h
CMakeFiles/DualSPHysics5.0_linux64.dir/JDsFtForcePoints.cpp.o: /home/prashant/Documents/Git/ForkDSPH/DualSPHysics/src/source/FunctionsGeo3d.h
CMakeFiles/DualSPHysics5.0_linux64.dir/JDsFtForcePoints.cpp.o: /home/prashant/Documents/Git/ForkDSPH/DualSPHysics/src/source/JAppInfo.h
CMakeFiles/DualSPHysics5.0_linux64.dir/JDsFtForcePoints.cpp.o: /home/prashant/Documents/Git/ForkDSPH/DualSPHysics/src/source/JAppInfoDef.h
CMakeFiles/DualSPHysics5.0_linux64.dir/JDsFtForcePoints.cpp.o: /home/prashant/Documents/Git/ForkDSPH/DualSPHysics/src/source/JDataArrays.h
CMakeFiles/DualSPHysics5.0_linux64.dir/JDsFtForcePoints.cpp.o: /home/prashant/Documents/Git/ForkDSPH/DualSPHysics/src/source/JDsFtForcePoints.cpp
CMakeFiles/DualSPHysics5.0_linux64.dir/JDsFtForcePoints.cpp.o: /home/prashant/Documents/Git/ForkDSPH/DualSPHysics/src/source/JDsFtForcePoints.h
CMakeFiles/DualSPHysics5.0_linux64.dir/JDsFtForcePoints.cpp.o: /home/prashant/Documents/Git/ForkDSPH/DualSPHysics/src/source/JLog2.h
CMakeFiles/DualSPHysics5.0_linux64.dir/JDsFtForcePoints.cpp.o: /home/prashant/Documents/Git/ForkDSPH/DualSPHysics/src/source/JNumexLibDef.h
CMakeFiles/DualSPHysics5.0_linux64.dir/JDsFtForcePoints.cpp.o: /home/prashant/Documents/Git/ForkDSPH/DualSPHysics/src/source/JObject.h
CMakeFiles/DualSPHysics5.0_linux64.dir/JDsFtForcePoints.cpp.o: /home/prashant/Documents/Git/ForkDSPH/DualSPHysics/src/source/JParticlesDef.h
CMakeFiles/DualSPHysics5.0_linux64.dir/JDsFtForcePoints.cpp.o: /home/prashant/Documents/Git/ForkDSPH/DualSPHysics/src/source/JPeriodicDef.h
CMakeFiles/DualSPHysics5.0_linux64.dir/JDsFtForcePoints.cpp.o: /home/prashant/Documents/Git/ForkDSPH/DualSPHysics/src/source/JSaveCsv2.h
CMakeFiles/DualSPHysics5.0_linux64.dir/JDsFtForcePoints.cpp.o: /home/prashant/Documents/Git/ForkDSPH/DualSPHysics/src/source/JSphMk.h
CMakeFiles/DualSPHysics5.0_linux64.dir/JDsFtForcePoints.cpp.o: /home/prashant/Documents/Git/ForkDSPH/DualSPHysics/src/source/JVtkLib.h
CMakeFiles/DualSPHysics5.0_linux64.dir/JDsFtForcePoints.cpp.o: /home/prashant/Documents/Git/ForkDSPH/DualSPHysics/src/source/JVtkLibDef.h
CMakeFiles/DualSPHysics5.0_linux64.dir/JDsFtForcePoints.cpp.o: /home/prashant/Documents/Git/ForkDSPH/DualSPHysics/src/source/JVtkLibUndef.h
CMakeFiles/DualSPHysics5.0_linux64.dir/JDsFtForcePoints.cpp.o: /home/prashant/Documents/Git/ForkDSPH/DualSPHysics/src/source/OmpDefs.h
CMakeFiles/DualSPHysics5.0_linux64.dir/JDsFtForcePoints.cpp.o: /home/prashant/Documents/Git/ForkDSPH/DualSPHysics/src/source/TypesDef.h

CMakeFiles/DualSPHysics5.0_linux64.dir/JDsGaugeItem.cpp.o: /home/prashant/Documents/Git/ForkDSPH/DualSPHysics/src/source/DualSphDef.h
CMakeFiles/DualSPHysics5.0_linux64.dir/JDsGaugeItem.cpp.o: /home/prashant/Documents/Git/ForkDSPH/DualSPHysics/src/source/FunSphEos.h
CMakeFiles/DualSPHysics5.0_linux64.dir/JDsGaugeItem.cpp.o: /home/prashant/Documents/Git/ForkDSPH/DualSPHysics/src/source/FunSphKernel.h
CMakeFiles/DualSPHysics5.0_linux64.dir/JDsGaugeItem.cpp.o: /home/prashant/Documents/Git/ForkDSPH/DualSPHysics/src/source/FunSphKernelDef.h
CMakeFiles/DualSPHysics5.0_linux64.dir/JDsGaugeItem.cpp.o: /home/prashant/Documents/Git/ForkDSPH/DualSPHysics/src/source/Functions.h
CMakeFiles/DualSPHysics5.0_linux64.dir/JDsGaugeItem.cpp.o: /home/prashant/Documents/Git/ForkDSPH/DualSPHysics/src/source/FunctionsCuda.h
CMakeFiles/DualSPHysics5.0_linux64.dir/JDsGaugeItem.cpp.o: /home/prashant/Documents/Git/ForkDSPH/DualSPHysics/src/source/FunctionsGeo3d.h
CMakeFiles/DualSPHysics5.0_linux64.dir/JDsGaugeItem.cpp.o: /home/prashant/Documents/Git/ForkDSPH/DualSPHysics/src/source/JAppInfo.h
CMakeFiles/DualSPHysics5.0_linux64.dir/JDsGaugeItem.cpp.o: /home/prashant/Documents/Git/ForkDSPH/DualSPHysics/src/source/JAppInfoDef.h
CMakeFiles/DualSPHysics5.0_linux64.dir/JDsGaugeItem.cpp.o: /home/prashant/Documents/Git/ForkDSPH/DualSPHysics/src/source/JCellDivDataCpu.h
CMakeFiles/DualSPHysics5.0_linux64.dir/JDsGaugeItem.cpp.o: /home/prashant/Documents/Git/ForkDSPH/DualSPHysics/src/source/JCellDivDataGpu.h
CMakeFiles/DualSPHysics5.0_linux64.dir/JDsGaugeItem.cpp.o: /home/prashant/Documents/Git/ForkDSPH/DualSPHysics/src/source/JCellSearch_inline.h
CMakeFiles/DualSPHysics5.0_linux64.dir/JDsGaugeItem.cpp.o: /home/prashant/Documents/Git/ForkDSPH/DualSPHysics/src/source/JDataArrays.h
CMakeFiles/DualSPHysics5.0_linux64.dir/JDsGaugeItem.cpp.o: /home/prashant/Documents/Git/ForkDSPH/DualSPHysics/src/source/JDsGaugeItem.cpp
CMakeFiles/DualSPHysics5.0_linux64.dir/JDsGaugeItem.cpp.o: /home/prashant/Documents/Git/ForkDSPH/DualSPHysics/src/source/JDsGaugeItem.h
CMakeFiles/DualSPHysics5.0_linux64.dir/JDsGaugeItem.cpp.o: /home/prashant/Documents/Git/ForkDSPH/DualSPHysics/src/source/JDsGauge_ker.h
CMakeFiles/DualSPHysics5.0_linux64.dir/JDsGaugeItem.cpp.o: /home/prashant/Documents/Git/ForkDSPH/DualSPHysics/src/source/JException.h
CMakeFiles/DualSPHysics5.0_linux64.dir/JDsGaugeItem.cpp.o: /home/prashant/Documents/Git/ForkDSPH/DualSPHysics/src/source/JLog2.h
CMakeFiles/DualSPHysics5.0_linux64.dir/JDsGaugeItem.cpp.o: /home/prashant/Documents/Git/ForkDSPH/DualSPHysics/src/source/JNumexLibDef.h
CMakeFiles/DualSPHysics5.0_linux64.dir/JDsGaugeItem.cpp.o: /home/prashant/Documents/Git/ForkDSPH/DualSPHysics/src/source/JObject.h
CMakeFiles/DualSPHysics5.0_linux64.dir/JDsGaugeItem.cpp.o: /home/prashant/Documents/Git/ForkDSPH/DualSPHysics/src/source/JParticlesDef.h
CMakeFiles/DualSPHysics5.0_linux64.dir/JDsGaugeItem.cpp.o: /home/prashant/Documents/Git/ForkDSPH/DualSPHysics/src/source/JPeriodicDef.h
CMakeFiles/DualSPHysics5.0_linux64.dir/JDsGaugeItem.cpp.o: /home/prashant/Documents/Git/ForkDSPH/DualSPHysics/src/source/JReduSum_ker.h
CMakeFiles/DualSPHysics5.0_linux64.dir/JDsGaugeItem.cpp.o: /home/prashant/Documents/Git/ForkDSPH/DualSPHysics/src/source/JSaveCsv2.h
CMakeFiles/DualSPHysics5.0_linux64.dir/JDsGaugeItem.cpp.o: /home/prashant/Documents/Git/ForkDSPH/DualSPHysics/src/source/JVtkLib.h
CMakeFiles/DualSPHysics5.0_linux64.dir/JDsGaugeItem.cpp.o: /home/prashant/Documents/Git/ForkDSPH/DualSPHysics/src/source/JVtkLibDef.h
CMakeFiles/DualSPHysics5.0_linux64.dir/JDsGaugeItem.cpp.o: /home/prashant/Documents/Git/ForkDSPH/DualSPHysics/src/source/JVtkLibUndef.h
CMakeFiles/DualSPHysics5.0_linux64.dir/JDsGaugeItem.cpp.o: /home/prashant/Documents/Git/ForkDSPH/DualSPHysics/src/source/OmpDefs.h
CMakeFiles/DualSPHysics5.0_linux64.dir/JDsGaugeItem.cpp.o: /home/prashant/Documents/Git/ForkDSPH/DualSPHysics/src/source/TypesDef.h
CMakeFiles/DualSPHysics5.0_linux64.dir/JDsGaugeItem.cpp.o: /usr/local/cuda-10.1/include/builtin_types.h
CMakeFiles/DualSPHysics5.0_linux64.dir/JDsGaugeItem.cpp.o: /usr/local/cuda-10.1/include/crt/host_defines.h
CMakeFiles/DualSPHysics5.0_linux64.dir/JDsGaugeItem.cpp.o: /usr/local/cuda-10.1/include/cuda_device_runtime_api.h
CMakeFiles/DualSPHysics5.0_linux64.dir/JDsGaugeItem.cpp.o: /usr/local/cuda-10.1/include/cuda_runtime_api.h
CMakeFiles/DualSPHysics5.0_linux64.dir/JDsGaugeItem.cpp.o: /usr/local/cuda-10.1/include/device_types.h
CMakeFiles/DualSPHysics5.0_linux64.dir/JDsGaugeItem.cpp.o: /usr/local/cuda-10.1/include/driver_types.h
CMakeFiles/DualSPHysics5.0_linux64.dir/JDsGaugeItem.cpp.o: /usr/local/cuda-10.1/include/surface_types.h
CMakeFiles/DualSPHysics5.0_linux64.dir/JDsGaugeItem.cpp.o: /usr/local/cuda-10.1/include/texture_types.h
CMakeFiles/DualSPHysics5.0_linux64.dir/JDsGaugeItem.cpp.o: /usr/local/cuda-10.1/include/vector_types.h

CMakeFiles/DualSPHysics5.0_linux64.dir/JDsGaugeSystem.cpp.o: /home/prashant/Documents/Git/ForkDSPH/DualSPHysics/src/source/DualSphDef.h
CMakeFiles/DualSPHysics5.0_linux64.dir/JDsGaugeSystem.cpp.o: /home/prashant/Documents/Git/ForkDSPH/DualSPHysics/src/source/FunSphKernel.h
CMakeFiles/DualSPHysics5.0_linux64.dir/JDsGaugeSystem.cpp.o: /home/prashant/Documents/Git/ForkDSPH/DualSPHysics/src/source/FunSphKernelDef.h
CMakeFiles/DualSPHysics5.0_linux64.dir/JDsGaugeSystem.cpp.o: /home/prashant/Documents/Git/ForkDSPH/DualSPHysics/src/source/Functions.h
CMakeFiles/DualSPHysics5.0_linux64.dir/JDsGaugeSystem.cpp.o: /home/prashant/Documents/Git/ForkDSPH/DualSPHysics/src/source/FunctionsCuda.h
CMakeFiles/DualSPHysics5.0_linux64.dir/JDsGaugeSystem.cpp.o: /home/prashant/Documents/Git/ForkDSPH/DualSPHysics/src/source/FunctionsGeo3d.h
CMakeFiles/DualSPHysics5.0_linux64.dir/JDsGaugeSystem.cpp.o: /home/prashant/Documents/Git/ForkDSPH/DualSPHysics/src/source/JAppInfo.h
CMakeFiles/DualSPHysics5.0_linux64.dir/JDsGaugeSystem.cpp.o: /home/prashant/Documents/Git/ForkDSPH/DualSPHysics/src/source/JAppInfoDef.h
CMakeFiles/DualSPHysics5.0_linux64.dir/JDsGaugeSystem.cpp.o: /home/prashant/Documents/Git/ForkDSPH/DualSPHysics/src/source/JCellDivDataCpu.h
CMakeFiles/DualSPHysics5.0_linux64.dir/JDsGaugeSystem.cpp.o: /home/prashant/Documents/Git/ForkDSPH/DualSPHysics/src/source/JCellDivDataGpu.h
CMakeFiles/DualSPHysics5.0_linux64.dir/JDsGaugeSystem.cpp.o: /home/prashant/Documents/Git/ForkDSPH/DualSPHysics/src/source/JDataArrays.h
CMakeFiles/DualSPHysics5.0_linux64.dir/JDsGaugeSystem.cpp.o: /home/prashant/Documents/Git/ForkDSPH/DualSPHysics/src/source/JDsGaugeItem.h
CMakeFiles/DualSPHysics5.0_linux64.dir/JDsGaugeSystem.cpp.o: /home/prashant/Documents/Git/ForkDSPH/DualSPHysics/src/source/JDsGaugeSystem.cpp
CMakeFiles/DualSPHysics5.0_linux64.dir/JDsGaugeSystem.cpp.o: /home/prashant/Documents/Git/ForkDSPH/DualSPHysics/src/source/JDsGaugeSystem.h
CMakeFiles/DualSPHysics5.0_linux64.dir/JDsGaugeSystem.cpp.o: /home/prashant/Documents/Git/ForkDSPH/DualSPHysics/src/source/JLog2.h
CMakeFiles/DualSPHysics5.0_linux64.dir/JDsGaugeSystem.cpp.o: /home/prashant/Documents/Git/ForkDSPH/DualSPHysics/src/source/JNumexLibDef.h
CMakeFiles/DualSPHysics5.0_linux64.dir/JDsGaugeSystem.cpp.o: /home/prashant/Documents/Git/ForkDSPH/DualSPHysics/src/source/JObject.h
CMakeFiles/DualSPHysics5.0_linux64.dir/JDsGaugeSystem.cpp.o: /home/prashant/Documents/Git/ForkDSPH/DualSPHysics/src/source/JParticlesDef.h
CMakeFiles/DualSPHysics5.0_linux64.dir/JDsGaugeSystem.cpp.o: /home/prashant/Documents/Git/ForkDSPH/DualSPHysics/src/source/JPeriodicDef.h
CMakeFiles/DualSPHysics5.0_linux64.dir/JDsGaugeSystem.cpp.o: /home/prashant/Documents/Git/ForkDSPH/DualSPHysics/src/source/JSaveCsv2.h
CMakeFiles/DualSPHysics5.0_linux64.dir/JDsGaugeSystem.cpp.o: /home/prashant/Documents/Git/ForkDSPH/DualSPHysics/src/source/JSphMk.h
CMakeFiles/DualSPHysics5.0_linux64.dir/JDsGaugeSystem.cpp.o: /home/prashant/Documents/Git/ForkDSPH/DualSPHysics/src/source/JVtkLib.h
CMakeFiles/DualSPHysics5.0_linux64.dir/JDsGaugeSystem.cpp.o: /home/prashant/Documents/Git/ForkDSPH/DualSPHysics/src/source/JVtkLibDef.h
CMakeFiles/DualSPHysics5.0_linux64.dir/JDsGaugeSystem.cpp.o: /home/prashant/Documents/Git/ForkDSPH/DualSPHysics/src/source/JVtkLibUndef.h
CMakeFiles/DualSPHysics5.0_linux64.dir/JDsGaugeSystem.cpp.o: /home/prashant/Documents/Git/ForkDSPH/DualSPHysics/src/source/JXml.h
CMakeFiles/DualSPHysics5.0_linux64.dir/JDsGaugeSystem.cpp.o: /home/prashant/Documents/Git/ForkDSPH/DualSPHysics/src/source/OmpDefs.h
CMakeFiles/DualSPHysics5.0_linux64.dir/JDsGaugeSystem.cpp.o: /home/prashant/Documents/Git/ForkDSPH/DualSPHysics/src/source/TypesDef.h
CMakeFiles/DualSPHysics5.0_linux64.dir/JDsGaugeSystem.cpp.o: /home/prashant/Documents/Git/ForkDSPH/DualSPHysics/src/source/tinystr.h
CMakeFiles/DualSPHysics5.0_linux64.dir/JDsGaugeSystem.cpp.o: /home/prashant/Documents/Git/ForkDSPH/DualSPHysics/src/source/tinyxml.h
CMakeFiles/DualSPHysics5.0_linux64.dir/JDsGaugeSystem.cpp.o: /usr/local/cuda-10.1/include/builtin_types.h
CMakeFiles/DualSPHysics5.0_linux64.dir/JDsGaugeSystem.cpp.o: /usr/local/cuda-10.1/include/crt/host_defines.h
CMakeFiles/DualSPHysics5.0_linux64.dir/JDsGaugeSystem.cpp.o: /usr/local/cuda-10.1/include/cuda_device_runtime_api.h
CMakeFiles/DualSPHysics5.0_linux64.dir/JDsGaugeSystem.cpp.o: /usr/local/cuda-10.1/include/cuda_runtime_api.h
CMakeFiles/DualSPHysics5.0_linux64.dir/JDsGaugeSystem.cpp.o: /usr/local/cuda-10.1/include/device_types.h
CMakeFiles/DualSPHysics5.0_linux64.dir/JDsGaugeSystem.cpp.o: /usr/local/cuda-10.1/include/driver_types.h
CMakeFiles/DualSPHysics5.0_linux64.dir/JDsGaugeSystem.cpp.o: /usr/local/cuda-10.1/include/surface_types.h
CMakeFiles/DualSPHysics5.0_linux64.dir/JDsGaugeSystem.cpp.o: /usr/local/cuda-10.1/include/texture_types.h
CMakeFiles/DualSPHysics5.0_linux64.dir/JDsGaugeSystem.cpp.o: /usr/local/cuda-10.1/include/vector_types.h

CMakeFiles/DualSPHysics5.0_linux64.dir/JDsInitialize.cpp.o: /home/prashant/Documents/Git/ForkDSPH/DualSPHysics/src/source/Functions.h
CMakeFiles/DualSPHysics5.0_linux64.dir/JDsInitialize.cpp.o: /home/prashant/Documents/Git/ForkDSPH/DualSPHysics/src/source/FunctionsGeo3d.h
CMakeFiles/DualSPHysics5.0_linux64.dir/JDsInitialize.cpp.o: /home/prashant/Documents/Git/ForkDSPH/DualSPHysics/src/source/FunctionsMath.h
CMakeFiles/DualSPHysics5.0_linux64.dir/JDsInitialize.cpp.o: /home/prashant/Documents/Git/ForkDSPH/DualSPHysics/src/source/JCaseProperties.h
CMakeFiles/DualSPHysics5.0_linux64.dir/JDsInitialize.cpp.o: /home/prashant/Documents/Git/ForkDSPH/DualSPHysics/src/source/JDsInitialize.cpp
CMakeFiles/DualSPHysics5.0_linux64.dir/JDsInitialize.cpp.o: /home/prashant/Documents/Git/ForkDSPH/DualSPHysics/src/source/JDsInitialize.h
CMakeFiles/DualSPHysics5.0_linux64.dir/JDsInitialize.cpp.o: /home/prashant/Documents/Git/ForkDSPH/DualSPHysics/src/source/JNumexLibDef.h
CMakeFiles/DualSPHysics5.0_linux64.dir/JDsInitialize.cpp.o: /home/prashant/Documents/Git/ForkDSPH/DualSPHysics/src/source/JObject.h
CMakeFiles/DualSPHysics5.0_linux64.dir/JDsInitialize.cpp.o: /home/prashant/Documents/Git/ForkDSPH/DualSPHysics/src/source/JRangeFilter.h
CMakeFiles/DualSPHysics5.0_linux64.dir/JDsInitialize.cpp.o: /home/prashant/Documents/Git/ForkDSPH/DualSPHysics/src/source/JXml.h
CMakeFiles/DualSPHysics5.0_linux64.dir/JDsInitialize.cpp.o: /home/prashant/Documents/Git/ForkDSPH/DualSPHysics/src/source/TypesDef.h
CMakeFiles/DualSPHysics5.0_linux64.dir/JDsInitialize.cpp.o: /home/prashant/Documents/Git/ForkDSPH/DualSPHysics/src/source/tinystr.h
CMakeFiles/DualSPHysics5.0_linux64.dir/JDsInitialize.cpp.o: /home/prashant/Documents/Git/ForkDSPH/DualSPHysics/src/source/tinyxml.h

CMakeFiles/DualSPHysics5.0_linux64.dir/JDsMooredFloatings.cpp.o: /home/prashant/Documents/Git/ForkDSPH/DualSPHysics/src/source/DSphMoorDyn.h
CMakeFiles/DualSPHysics5.0_linux64.dir/JDsMooredFloatings.cpp.o: /home/prashant/Documents/Git/ForkDSPH/DualSPHysics/src/source/DSphMoorDynUndef.h
CMakeFiles/DualSPHysics5.0_linux64.dir/JDsMooredFloatings.cpp.o: /home/prashant/Documents/Git/ForkDSPH/DualSPHysics/src/source/DualSphDef.h
CMakeFiles/DualSPHysics5.0_linux64.dir/JDsMooredFloatings.cpp.o: /home/prashant/Documents/Git/ForkDSPH/DualSPHysics/src/source/FunSphKernelDef.h
CMakeFiles/DualSPHysics5.0_linux64.dir/JDsMooredFloatings.cpp.o: /home/prashant/Documents/Git/ForkDSPH/DualSPHysics/src/source/Functions.h
CMakeFiles/DualSPHysics5.0_linux64.dir/JDsMooredFloatings.cpp.o: /home/prashant/Documents/Git/ForkDSPH/DualSPHysics/src/source/FunctionsGeo3d.h
CMakeFiles/DualSPHysics5.0_linux64.dir/JDsMooredFloatings.cpp.o: /home/prashant/Documents/Git/ForkDSPH/DualSPHysics/src/source/JAppInfo.h
CMakeFiles/DualSPHysics5.0_linux64.dir/JDsMooredFloatings.cpp.o: /home/prashant/Documents/Git/ForkDSPH/DualSPHysics/src/source/JAppInfoDef.h
CMakeFiles/DualSPHysics5.0_linux64.dir/JDsMooredFloatings.cpp.o: /home/prashant/Documents/Git/ForkDSPH/DualSPHysics/src/source/JDataArrays.h
CMakeFiles/DualSPHysics5.0_linux64.dir/JDsMooredFloatings.cpp.o: /home/prashant/Documents/Git/ForkDSPH/DualSPHysics/src/source/JDsFtForcePoints.h
CMakeFiles/DualSPHysics5.0_linux64.dir/JDsMooredFloatings.cpp.o: /home/prashant/Documents/Git/ForkDSPH/DualSPHysics/src/source/JDsMooredFloatings.cpp
CMakeFiles/DualSPHysics5.0_linux64.dir/JDsMooredFloatings.cpp.o: /home/prashant/Documents/Git/ForkDSPH/DualSPHysics/src/source/JDsMooredFloatings.h
CMakeFiles/DualSPHysics5.0_linux64.dir/JDsMooredFloatings.cpp.o: /home/prashant/Documents/Git/ForkDSPH/DualSPHysics/src/source/JLog2.h
CMakeFiles/DualSPHysics5.0_linux64.dir/JDsMooredFloatings.cpp.o: /home/prashant/Documents/Git/ForkDSPH/DualSPHysics/src/source/JNumexLibDef.h
CMakeFiles/DualSPHysics5.0_linux64.dir/JDsMooredFloatings.cpp.o: /home/prashant/Documents/Git/ForkDSPH/DualSPHysics/src/source/JObject.h
CMakeFiles/DualSPHysics5.0_linux64.dir/JDsMooredFloatings.cpp.o: /home/prashant/Documents/Git/ForkDSPH/DualSPHysics/src/source/JParticlesDef.h
CMakeFiles/DualSPHysics5.0_linux64.dir/JDsMooredFloatings.cpp.o: /home/prashant/Documents/Git/ForkDSPH/DualSPHysics/src/source/JPeriodicDef.h
CMakeFiles/DualSPHysics5.0_linux64.dir/JDsMooredFloatings.cpp.o: /home/prashant/Documents/Git/ForkDSPH/DualSPHysics/src/source/JSaveCsv2.h
CMakeFiles/DualSPHysics5.0_linux64.dir/JDsMooredFloatings.cpp.o: /home/prashant/Documents/Git/ForkDSPH/DualSPHysics/src/source/JVtkLib.h
CMakeFiles/DualSPHysics5.0_linux64.dir/JDsMooredFloatings.cpp.o: /home/prashant/Documents/Git/ForkDSPH/DualSPHysics/src/source/JVtkLibDef.h
CMakeFiles/DualSPHysics5.0_linux64.dir/JDsMooredFloatings.cpp.o: /home/prashant/Documents/Git/ForkDSPH/DualSPHysics/src/source/JVtkLibUndef.h
CMakeFiles/DualSPHysics5.0_linux64.dir/JDsMooredFloatings.cpp.o: /home/prashant/Documents/Git/ForkDSPH/DualSPHysics/src/source/JXml.h
CMakeFiles/DualSPHysics5.0_linux64.dir/JDsMooredFloatings.cpp.o: /home/prashant/Documents/Git/ForkDSPH/DualSPHysics/src/source/OmpDefs.h
CMakeFiles/DualSPHysics5.0_linux64.dir/JDsMooredFloatings.cpp.o: /home/prashant/Documents/Git/ForkDSPH/DualSPHysics/src/source/TypesDef.h
CMakeFiles/DualSPHysics5.0_linux64.dir/JDsMooredFloatings.cpp.o: /home/prashant/Documents/Git/ForkDSPH/DualSPHysics/src/source/tinystr.h
CMakeFiles/DualSPHysics5.0_linux64.dir/JDsMooredFloatings.cpp.o: /home/prashant/Documents/Git/ForkDSPH/DualSPHysics/src/source/tinyxml.h

CMakeFiles/DualSPHysics5.0_linux64.dir/JDsMotion.cpp.o: /home/prashant/Documents/Git/ForkDSPH/DualSPHysics/src/source/DualSphDef.h
CMakeFiles/DualSPHysics5.0_linux64.dir/JDsMotion.cpp.o: /home/prashant/Documents/Git/ForkDSPH/DualSPHysics/src/source/FunSphKernelDef.h
CMakeFiles/DualSPHysics5.0_linux64.dir/JDsMotion.cpp.o: /home/prashant/Documents/Git/ForkDSPH/DualSPHysics/src/source/JCaseParts.h
CMakeFiles/DualSPHysics5.0_linux64.dir/JDsMotion.cpp.o: /home/prashant/Documents/Git/ForkDSPH/DualSPHysics/src/source/JCasePartsDef.h
CMakeFiles/DualSPHysics5.0_linux64.dir/JDsMotion.cpp.o: /home/prashant/Documents/Git/ForkDSPH/DualSPHysics/src/source/JDsMotion.cpp
CMakeFiles/DualSPHysics5.0_linux64.dir/JDsMotion.cpp.o: /home/prashant/Documents/Git/ForkDSPH/DualSPHysics/src/source/JDsMotion.h
CMakeFiles/DualSPHysics5.0_linux64.dir/JDsMotion.cpp.o: /home/prashant/Documents/Git/ForkDSPH/DualSPHysics/src/source/JMatrix4.h
CMakeFiles/DualSPHysics5.0_linux64.dir/JDsMotion.cpp.o: /home/prashant/Documents/Git/ForkDSPH/DualSPHysics/src/source/JMotion.h
CMakeFiles/DualSPHysics5.0_linux64.dir/JDsMotion.cpp.o: /home/prashant/Documents/Git/ForkDSPH/DualSPHysics/src/source/JNumexLibDef.h
CMakeFiles/DualSPHysics5.0_linux64.dir/JDsMotion.cpp.o: /home/prashant/Documents/Git/ForkDSPH/DualSPHysics/src/source/JObject.h
CMakeFiles/DualSPHysics5.0_linux64.dir/JDsMotion.cpp.o: /home/prashant/Documents/Git/ForkDSPH/DualSPHysics/src/source/JParticlesDef.h
CMakeFiles/DualSPHysics5.0_linux64.dir/JDsMotion.cpp.o: /home/prashant/Documents/Git/ForkDSPH/DualSPHysics/src/source/JPeriodicDef.h
CMakeFiles/DualSPHysics5.0_linux64.dir/JDsMotion.cpp.o: /home/prashant/Documents/Git/ForkDSPH/DualSPHysics/src/source/JVtkLibDef.h
CMakeFiles/DualSPHysics5.0_linux64.dir/JDsMotion.cpp.o: /home/prashant/Documents/Git/ForkDSPH/DualSPHysics/src/source/JXml.h
CMakeFiles/DualSPHysics5.0_linux64.dir/JDsMotion.cpp.o: /home/prashant/Documents/Git/ForkDSPH/DualSPHysics/src/source/OmpDefs.h
CMakeFiles/DualSPHysics5.0_linux64.dir/JDsMotion.cpp.o: /home/prashant/Documents/Git/ForkDSPH/DualSPHysics/src/source/TypesDef.h
CMakeFiles/DualSPHysics5.0_linux64.dir/JDsMotion.cpp.o: /home/prashant/Documents/Git/ForkDSPH/DualSPHysics/src/source/tinystr.h
CMakeFiles/DualSPHysics5.0_linux64.dir/JDsMotion.cpp.o: /home/prashant/Documents/Git/ForkDSPH/DualSPHysics/src/source/tinyxml.h

CMakeFiles/DualSPHysics5.0_linux64.dir/JDsOutputTime.cpp.o: /home/prashant/Documents/Git/ForkDSPH/DualSPHysics/src/source/Functions.h
CMakeFiles/DualSPHysics5.0_linux64.dir/JDsOutputTime.cpp.o: /home/prashant/Documents/Git/ForkDSPH/DualSPHysics/src/source/JDsOutputTime.cpp
CMakeFiles/DualSPHysics5.0_linux64.dir/JDsOutputTime.cpp.o: /home/prashant/Documents/Git/ForkDSPH/DualSPHysics/src/source/JDsOutputTime.h
CMakeFiles/DualSPHysics5.0_linux64.dir/JDsOutputTime.cpp.o: /home/prashant/Documents/Git/ForkDSPH/DualSPHysics/src/source/JLog2.h
CMakeFiles/DualSPHysics5.0_linux64.dir/JDsOutputTime.cpp.o: /home/prashant/Documents/Git/ForkDSPH/DualSPHysics/src/source/JNumexLibDef.h
CMakeFiles/DualSPHysics5.0_linux64.dir/JDsOutputTime.cpp.o: /home/prashant/Documents/Git/ForkDSPH/DualSPHysics/src/source/JObject.h
CMakeFiles/DualSPHysics5.0_linux64.dir/JDsOutputTime.cpp.o: /home/prashant/Documents/Git/ForkDSPH/DualSPHysics/src/source/JXml.h
CMakeFiles/DualSPHysics5.0_linux64.dir/JDsOutputTime.cpp.o: /home/prashant/Documents/Git/ForkDSPH/DualSPHysics/src/source/TypesDef.h
CMakeFiles/DualSPHysics5.0_linux64.dir/JDsOutputTime.cpp.o: /home/prashant/Documents/Git/ForkDSPH/DualSPHysics/src/source/tinystr.h
CMakeFiles/DualSPHysics5.0_linux64.dir/JDsOutputTime.cpp.o: /home/prashant/Documents/Git/ForkDSPH/DualSPHysics/src/source/tinyxml.h

CMakeFiles/DualSPHysics5.0_linux64.dir/JDsPartsInit.cpp.o: /home/prashant/Documents/Git/ForkDSPH/DualSPHysics/src/source/DualSphDef.h
CMakeFiles/DualSPHysics5.0_linux64.dir/JDsPartsInit.cpp.o: /home/prashant/Documents/Git/ForkDSPH/DualSPHysics/src/source/FunSphKernelDef.h
CMakeFiles/DualSPHysics5.0_linux64.dir/JDsPartsInit.cpp.o: /home/prashant/Documents/Git/ForkDSPH/DualSPHysics/src/source/Functions.h
CMakeFiles/DualSPHysics5.0_linux64.dir/JDsPartsInit.cpp.o: /home/prashant/Documents/Git/ForkDSPH/DualSPHysics/src/source/FunctionsMath.h
CMakeFiles/DualSPHysics5.0_linux64.dir/JDsPartsInit.cpp.o: /home/prashant/Documents/Git/ForkDSPH/DualSPHysics/src/source/JAppInfo.h
CMakeFiles/DualSPHysics5.0_linux64.dir/JDsPartsInit.cpp.o: /home/prashant/Documents/Git/ForkDSPH/DualSPHysics/src/source/JAppInfoDef.h
CMakeFiles/DualSPHysics5.0_linux64.dir/JDsPartsInit.cpp.o: /home/prashant/Documents/Git/ForkDSPH/DualSPHysics/src/source/JDsPartsInit.cpp
CMakeFiles/DualSPHysics5.0_linux64.dir/JDsPartsInit.cpp.o: /home/prashant/Documents/Git/ForkDSPH/DualSPHysics/src/source/JDsPartsInit.h
CMakeFiles/DualSPHysics5.0_linux64.dir/JDsPartsInit.cpp.o: /home/prashant/Documents/Git/ForkDSPH/DualSPHysics/src/source/JNumexLibDef.h
CMakeFiles/DualSPHysics5.0_linux64.dir/JDsPartsInit.cpp.o: /home/prashant/Documents/Git/ForkDSPH/DualSPHysics/src/source/JObject.h
CMakeFiles/DualSPHysics5.0_linux64.dir/JDsPartsInit.cpp.o: /home/prashant/Documents/Git/ForkDSPH/DualSPHysics/src/source/JParticlesDef.h
CMakeFiles/DualSPHysics5.0_linux64.dir/JDsPartsInit.cpp.o: /home/prashant/Documents/Git/ForkDSPH/DualSPHysics/src/source/JPeriodicDef.h
CMakeFiles/DualSPHysics5.0_linux64.dir/JDsPartsInit.cpp.o: /home/prashant/Documents/Git/ForkDSPH/DualSPHysics/src/source/JSphMk.h
CMakeFiles/DualSPHysics5.0_linux64.dir/JDsPartsInit.cpp.o: /home/prashant/Documents/Git/ForkDSPH/DualSPHysics/src/source/JVtkLibDef.h
CMakeFiles/DualSPHysics5.0_linux64.dir/JDsPartsInit.cpp.o: /home/prashant/Documents/Git/ForkDSPH/DualSPHysics/src/source/OmpDefs.h
CMakeFiles/DualSPHysics5.0_linux64.dir/JDsPartsInit.cpp.o: /home/prashant/Documents/Git/ForkDSPH/DualSPHysics/src/source/TypesDef.h

CMakeFiles/DualSPHysics5.0_linux64.dir/JDsPartsOut.cpp.o: /home/prashant/Documents/Git/ForkDSPH/DualSPHysics/src/source/DualSphDef.h
CMakeFiles/DualSPHysics5.0_linux64.dir/JDsPartsOut.cpp.o: /home/prashant/Documents/Git/ForkDSPH/DualSPHysics/src/source/FunSphKernelDef.h
CMakeFiles/DualSPHysics5.0_linux64.dir/JDsPartsOut.cpp.o: /home/prashant/Documents/Git/ForkDSPH/DualSPHysics/src/source/Functions.h
CMakeFiles/DualSPHysics5.0_linux64.dir/JDsPartsOut.cpp.o: /home/prashant/Documents/Git/ForkDSPH/DualSPHysics/src/source/JDsPartsOut.cpp
CMakeFiles/DualSPHysics5.0_linux64.dir/JDsPartsOut.cpp.o: /home/prashant/Documents/Git/ForkDSPH/DualSPHysics/src/source/JDsPartsOut.h
CMakeFiles/DualSPHysics5.0_linux64.dir/JDsPartsOut.cpp.o: /home/prashant/Documents/Git/ForkDSPH/DualSPHysics/src/source/JNumexLibDef.h
CMakeFiles/DualSPHysics5.0_linux64.dir/JDsPartsOut.cpp.o: /home/prashant/Documents/Git/ForkDSPH/DualSPHysics/src/source/JObject.h
CMakeFiles/DualSPHysics5.0_linux64.dir/JDsPartsOut.cpp.o: /home/prashant/Documents/Git/ForkDSPH/DualSPHysics/src/source/JParticlesDef.h
CMakeFiles/DualSPHysics5.0_linux64.dir/JDsPartsOut.cpp.o: /home/prashant/Documents/Git/ForkDSPH/DualSPHysics/src/source/JPeriodicDef.h
CMakeFiles/DualSPHysics5.0_linux64.dir/JDsPartsOut.cpp.o: /home/prashant/Documents/Git/ForkDSPH/DualSPHysics/src/source/JVtkLibDef.h
CMakeFiles/DualSPHysics5.0_linux64.dir/JDsPartsOut.cpp.o: /home/prashant/Documents/Git/ForkDSPH/DualSPHysics/src/source/OmpDefs.h
CMakeFiles/DualSPHysics5.0_linux64.dir/JDsPartsOut.cpp.o: /home/prashant/Documents/Git/ForkDSPH/DualSPHysics/src/source/TypesDef.h

CMakeFiles/DualSPHysics5.0_linux64.dir/JDsPips.cpp.o: /home/prashant/Documents/Git/ForkDSPH/DualSPHysics/src/source/DualSphDef.h
CMakeFiles/DualSPHysics5.0_linux64.dir/JDsPips.cpp.o: /home/prashant/Documents/Git/ForkDSPH/DualSPHysics/src/source/FunSphKernelDef.h
CMakeFiles/DualSPHysics5.0_linux64.dir/JDsPips.cpp.o: /home/prashant/Documents/Git/ForkDSPH/DualSPHysics/src/source/Functions.h
CMakeFiles/DualSPHysics5.0_linux64.dir/JDsPips.cpp.o: /home/prashant/Documents/Git/ForkDSPH/DualSPHysics/src/source/JAppInfo.h
CMakeFiles/DualSPHysics5.0_linux64.dir/JDsPips.cpp.o: /home/prashant/Documents/Git/ForkDSPH/DualSPHysics/src/source/JAppInfoDef.h
CMakeFiles/DualSPHysics5.0_linux64.dir/JDsPips.cpp.o: /home/prashant/Documents/Git/ForkDSPH/DualSPHysics/src/source/JCellDivDataCpu.h
CMakeFiles/DualSPHysics5.0_linux64.dir/JDsPips.cpp.o: /home/prashant/Documents/Git/ForkDSPH/DualSPHysics/src/source/JCellDivDataGpu.h
CMakeFiles/DualSPHysics5.0_linux64.dir/JDsPips.cpp.o: /home/prashant/Documents/Git/ForkDSPH/DualSPHysics/src/source/JCellSearch_inline.h
CMakeFiles/DualSPHysics5.0_linux64.dir/JDsPips.cpp.o: /home/prashant/Documents/Git/ForkDSPH/DualSPHysics/src/source/JDsPips.cpp
CMakeFiles/DualSPHysics5.0_linux64.dir/JDsPips.cpp.o: /home/prashant/Documents/Git/ForkDSPH/DualSPHysics/src/source/JDsPips.h
CMakeFiles/DualSPHysics5.0_linux64.dir/JDsPips.cpp.o: /home/prashant/Documents/Git/ForkDSPH/DualSPHysics/src/source/JDsPips_ker.h
CMakeFiles/DualSPHysics5.0_linux64.dir/JDsPips.cpp.o: /home/prashant/Documents/Git/ForkDSPH/DualSPHysics/src/source/JLog2.h
CMakeFiles/DualSPHysics5.0_linux64.dir/JDsPips.cpp.o: /home/prashant/Documents/Git/ForkDSPH/DualSPHysics/src/source/JNumexLibDef.h
CMakeFiles/DualSPHysics5.0_linux64.dir/JDsPips.cpp.o: /home/prashant/Documents/Git/ForkDSPH/DualSPHysics/src/source/JObject.h
CMakeFiles/DualSPHysics5.0_linux64.dir/JDsPips.cpp.o: /home/prashant/Documents/Git/ForkDSPH/DualSPHysics/src/source/JParticlesDef.h
CMakeFiles/DualSPHysics5.0_linux64.dir/JDsPips.cpp.o: /home/prashant/Documents/Git/ForkDSPH/DualSPHysics/src/source/JPeriodicDef.h
CMakeFiles/DualSPHysics5.0_linux64.dir/JDsPips.cpp.o: /home/prashant/Documents/Git/ForkDSPH/DualSPHysics/src/source/JSaveCsv2.h
CMakeFiles/DualSPHysics5.0_linux64.dir/JDsPips.cpp.o: /home/prashant/Documents/Git/ForkDSPH/DualSPHysics/src/source/JVtkLibDef.h
CMakeFiles/DualSPHysics5.0_linux64.dir/JDsPips.cpp.o: /home/prashant/Documents/Git/ForkDSPH/DualSPHysics/src/source/OmpDefs.h
CMakeFiles/DualSPHysics5.0_linux64.dir/JDsPips.cpp.o: /home/prashant/Documents/Git/ForkDSPH/DualSPHysics/src/source/TypesDef.h
CMakeFiles/DualSPHysics5.0_linux64.dir/JDsPips.cpp.o: /usr/local/cuda-10.1/include/builtin_types.h
CMakeFiles/DualSPHysics5.0_linux64.dir/JDsPips.cpp.o: /usr/local/cuda-10.1/include/crt/host_defines.h
CMakeFiles/DualSPHysics5.0_linux64.dir/JDsPips.cpp.o: /usr/local/cuda-10.1/include/cuda_device_runtime_api.h
CMakeFiles/DualSPHysics5.0_linux64.dir/JDsPips.cpp.o: /usr/local/cuda-10.1/include/cuda_runtime_api.h
CMakeFiles/DualSPHysics5.0_linux64.dir/JDsPips.cpp.o: /usr/local/cuda-10.1/include/device_types.h
CMakeFiles/DualSPHysics5.0_linux64.dir/JDsPips.cpp.o: /usr/local/cuda-10.1/include/driver_types.h
CMakeFiles/DualSPHysics5.0_linux64.dir/JDsPips.cpp.o: /usr/local/cuda-10.1/include/surface_types.h
CMakeFiles/DualSPHysics5.0_linux64.dir/JDsPips.cpp.o: /usr/local/cuda-10.1/include/texture_types.h
CMakeFiles/DualSPHysics5.0_linux64.dir/JDsPips.cpp.o: /usr/local/cuda-10.1/include/vector_types.h

CMakeFiles/DualSPHysics5.0_linux64.dir/JDsSaveDt.cpp.o: /home/prashant/Documents/Git/ForkDSPH/DualSPHysics/src/source/DualSphDef.h
CMakeFiles/DualSPHysics5.0_linux64.dir/JDsSaveDt.cpp.o: /home/prashant/Documents/Git/ForkDSPH/DualSPHysics/src/source/FunSphKernelDef.h
CMakeFiles/DualSPHysics5.0_linux64.dir/JDsSaveDt.cpp.o: /home/prashant/Documents/Git/ForkDSPH/DualSPHysics/src/source/Functions.h
CMakeFiles/DualSPHysics5.0_linux64.dir/JDsSaveDt.cpp.o: /home/prashant/Documents/Git/ForkDSPH/DualSPHysics/src/source/JAppInfo.h
CMakeFiles/DualSPHysics5.0_linux64.dir/JDsSaveDt.cpp.o: /home/prashant/Documents/Git/ForkDSPH/DualSPHysics/src/source/JAppInfoDef.h
CMakeFiles/DualSPHysics5.0_linux64.dir/JDsSaveDt.cpp.o: /home/prashant/Documents/Git/ForkDSPH/DualSPHysics/src/source/JDsSaveDt.cpp
CMakeFiles/DualSPHysics5.0_linux64.dir/JDsSaveDt.cpp.o: /home/prashant/Documents/Git/ForkDSPH/DualSPHysics/src/source/JDsSaveDt.h
CMakeFiles/DualSPHysics5.0_linux64.dir/JDsSaveDt.cpp.o: /home/prashant/Documents/Git/ForkDSPH/DualSPHysics/src/source/JLog2.h
CMakeFiles/DualSPHysics5.0_linux64.dir/JDsSaveDt.cpp.o: /home/prashant/Documents/Git/ForkDSPH/DualSPHysics/src/source/JNumexLibDef.h
[...]
CMakeFiles/DualSPHysics5.0_linux64.dir/JSphMk.cpp.o: /home/prashant/Documents/Git/ForkDSPH/DualSPHysics/src/source/JCaseParts.h
CMakeFiles/DualSPHysics5.0_linux64.dir/JSphMk.cpp.o: /home/prashant/Documents/Git/ForkDSPH/DualSPHysics/src/source/JCasePartsDef.h
CMakeFiles/DualSPHysics5.0_linux64.dir/JSphMk.cpp.o: /home/prashant/Documents/Git/ForkDSPH/DualSPHysics/src/source/JNumexLibDef.h
CMakeFiles/DualSPHysics5.0_linux64.dir/JSphMk.cpp.o: /home/prashant/Documents/Git/ForkDSPH/DualSPHysics/src/source/JObject.h
CMakeFiles/DualSPHysics5.0_linux64.dir/JSphMk.cpp.o: /home/prashant/Documents/Git/ForkDSPH/DualSPHysics/src/source/JPartDataHead.h
CMakeFiles/DualSPHysics5.0_linux64.dir/JSphMk.cpp.o: /home/prashant/Documents/Git/ForkDSPH/DualSPHysics/src/source/JParticlesDef.h
CMakeFiles/DualSPHysics5.0_linux64.dir/JSphMk.cpp.o: /home/prashant/Documents/Git/ForkDSPH/DualSPHysics/src/source/JPeriodicDef.h
CMakeFiles/DualSPHysics5.0_linux64.dir/JSphMk.cpp.o: /home/prashant/Documents/Git/ForkDSPH/DualSPHysics/src/source/JSphMk.cpp
CMakeFiles/DualSPHysics5.0_linux64.dir/JSphMk.cpp.o: /home/prashant/Documents/Git/ForkDSPH/DualSPHysics/src/source/JSphMk.h
CMakeFiles/DualSPHysics5.0_linux64.dir/JSphMk.cpp.o: /home/prashant/Documents/Git/ForkDSPH/DualSPHysics/src/source/JVtkLibDef.h
CMakeFiles/DualSPHysics5.0_linux64.dir/JSphMk.cpp.o: /home/prashant/Documents/Git/ForkDSPH/DualSPHysics/src/source/OmpDefs.h
CMakeFiles/DualSPHysics5.0_linux64.dir/JSphMk.cpp.o: /home/prashant/Documents/Git/ForkDSPH/DualSPHysics/src/source/TypesDef.h

CMakeFiles/DualSPHysics5.0_linux64.dir/JSphShifting.cpp.o: /home/prashant/Documents/Git/ForkDSPH/DualSPHysics/src/source/DualSphDef.h
CMakeFiles/DualSPHysics5.0_linux64.dir/JSphShifting.cpp.o: /home/prashant/Documents/Git/ForkDSPH/DualSPHysics/src/source/FunSphKernelDef.h
CMakeFiles/DualSPHysics5.0_linux64.dir/JSphShifting.cpp.o: /home/prashant/Documents/Git/ForkDSPH/DualSPHysics/src/source/Functions.h
CMakeFiles/DualSPHysics5.0_linux64.dir/JSphShifting.cpp.o: /home/prashant/Documents/Git/ForkDSPH/DualSPHysics/src/source/FunctionsGeo3d.h
CMakeFiles/DualSPHysics5.0_linux64.dir/JSphShifting.cpp.o: /home/prashant/Documents/Git/ForkDSPH/DualSPHysics/src/source/JAppInfo.h
CMakeFiles/DualSPHysics5.0_linux64.dir/JSphShifting.cpp.o: /home/prashant/Documents/Git/ForkDSPH/DualSPHysics/src/source/JAppInfoDef.h
CMakeFiles/DualSPHysics5.0_linux64.dir/JSphShifting.cpp.o: /home/prashant/Documents/Git/ForkDSPH/DualSPHysics/src/source/JDataArrays.h
CMakeFiles/DualSPHysics5.0_linux64.dir/JSphShifting.cpp.o: /home/prashant/Documents/Git/ForkDSPH/DualSPHysics/src/source/JLog2.h
CMakeFiles/DualSPHysics5.0_linux64.dir/JSphShifting.cpp.o: /home/prashant/Documents/Git/ForkDSPH/DualSPHysics/src/source/JMatrix4.h
CMakeFiles/DualSPHysics5.0_linux64.dir/JSphShifting.cpp.o: /home/prashant/Documents/Git/ForkDSPH/DualSPHysics/src/source/JNumexLibDef.h
CMakeFiles/DualSPHysics5.0_linux64.dir/JSphShifting.cpp.o: /home/prashant/Documents/Git/ForkDSPH/DualSPHysics/src/source/JObject.h
CMakeFiles/DualSPHysics5.0_linux64.dir/JSphShifting.cpp.o: /home/prashant/Documents/Git/ForkDSPH/DualSPHysics/src/source/JParticlesDef.h
CMakeFiles/DualSPHysics5.0_linux64.dir/JSphShifting.cpp.o: /home/prashant/Documents/Git/ForkDSPH/DualSPHysics/src/source/JPeriodicDef.h
CMakeFiles/DualSPHysics5.0_linux64.dir/JSphShifting.cpp.o: /home/prashant/Documents/Git/ForkDSPH/DualSPHysics/src/source/JSphShifting.cpp
CMakeFiles/DualSPHysics5.0_linux64.dir/JSphShifting.cpp.o: /home/prashant/Documents/Git/ForkDSPH/DualSPHysics/src/source/JSphShifting.h
CMakeFiles/DualSPHysics5.0_linux64.dir/JSphShifting.cpp.o: /home/prashant/Documents/Git/ForkDSPH/DualSPHysics/src/source/JSphShifting_ker.h
CMakeFiles/DualSPHysics5.0_linux64.dir/JSphShifting.cpp.o: /home/prashant/Documents/Git/ForkDSPH/DualSPHysics/src/source/JVtkLib.h
CMakeFiles/DualSPHysics5.0_linux64.dir/JSphShifting.cpp.o: /home/prashant/Documents/Git/ForkDSPH/DualSPHysics/src/source/JVtkLibDef.h
CMakeFiles/DualSPHysics5.0_linux64.dir/JSphShifting.cpp.o: /home/prashant/Documents/Git/ForkDSPH/DualSPHysics/src/source/JVtkLibUndef.h
CMakeFiles/DualSPHysics5.0_linux64.dir/JSphShifting.cpp.o: /home/prashant/Documents/Git/ForkDSPH/DualSPHysics/src/source/JXml.h
CMakeFiles/DualSPHysics5.0_linux64.dir/JSphShifting.cpp.o: /home/prashant/Documents/Git/ForkDSPH/DualSPHysics/src/source/OmpDefs.h
CMakeFiles/DualSPHysics5.0_linux64.dir/JSphShifting.cpp.o: /home/prashant/Documents/Git/ForkDSPH/DualSPHysics/src/source/TypesDef.h
CMakeFiles/DualSPHysics5.0_linux64.dir/JSphShifting.cpp.o: /home/prashant/Documents/Git/ForkDSPH/DualSPHysics/src/source/tinystr.h
CMakeFiles/DualSPHysics5.0_linux64.dir/JSphShifting.cpp.o: /home/prashant/Documents/Git/ForkDSPH/DualSPHysics/src/source/tinyxml.h
CMakeFiles/DualSPHysics5.0_linux64.dir/JSphShifting.cpp.o: /usr/local/cuda-10.1/include/builtin_types.h
CMakeFiles/DualSPHysics5.0_linux64.dir/JSphShifting.cpp.o: /usr/local/cuda-10.1/include/crt/host_defines.h
CMakeFiles/DualSPHysics5.0_linux64.dir/JSphShifting.cpp.o: /usr/local/cuda-10.1/include/cuda_device_runtime_api.h
CMakeFiles/DualSPHysics5.0_linux64.dir/JSphShifting.cpp.o: /usr/local/cuda-10.1/include/cuda_runtime_api.h
CMakeFiles/DualSPHysics5.0_linux64.dir/JSphShifting.cpp.o: /usr/local/cuda-10.1/include/device_types.h
CMakeFiles/DualSPHysics5.0_linux64.dir/JSphShifting.cpp.o: /usr/local/cuda-10.1/include/driver_types.h
CMakeFiles/DualSPHysics5.0_linux64.dir/JSphShifting.cpp.o: /usr/local/cuda-10.1/include/surface_types.h
CMakeFiles/DualSPHysics5.0_linux64.dir/JSphShifting.cpp.o: /usr/local/cuda-10.1/include/texture_types.h
CMakeFiles/DualSPHysics5.0_linux64.dir/JSphShifting.cpp.o: /usr/local/cuda-10.1/include/vector_types.h

CMakeFiles/DualSPHysics5.0_linux64.dir/JTimeControl.cpp.o: /home/prashant/Documents/Git/ForkDSPH/DualSPHysics/src/source/Functions.h
CMakeFiles/DualSPHysics5.0_linux64.dir/JTimeControl.cpp.o: /home/prashant/Documents/Git/ForkDSPH/DualSPHysics/src/source/JObject.h
CMakeFiles/DualSPHysics5.0_linux64.dir/JTimeControl.cpp.o: /home/prashant/Documents/Git/ForkDSPH/DualSPHysics/src/source/JTimeControl.cpp
CMakeFiles/DualSPHysics5.0_linux64.dir/JTimeControl.cpp.o: /home/prashant/Documents/Git/ForkDSPH/DualSPHysics/src/source/JTimeControl.h
CMakeFiles/DualSPHysics5.0_linux64.dir/JTimeControl.cpp.o: /home/prashant/Documents/Git/ForkDSPH/DualSPHysics/src/source/JTimer.h
CMakeFiles/DualSPHysics5.0_linux64.dir/JTimeControl.cpp.o: /home/prashant/Documents/Git/ForkDSPH/DualSPHysics/src/source/TypesDef.h

CMakeFiles/DualSPHysics5.0_linux64.dir/JWaveAwasZsurf.cpp.o: /home/prashant/Documents/Git/ForkDSPH/DualSPHysics/src/source/DualSphDef.h
CMakeFiles/DualSPHysics5.0_linux64.dir/JWaveAwasZsurf.cpp.o: /home/prashant/Documents/Git/ForkDSPH/DualSPHysics/src/source/FunSphKernelDef.h
CMakeFiles/DualSPHysics5.0_linux64.dir/JWaveAwasZsurf.cpp.o: /home/prashant/Documents/Git/ForkDSPH/DualSPHysics/src/source/Functions.h
CMakeFiles/DualSPHysics5.0_linux64.dir/JWaveAwasZsurf.cpp.o: /home/prashant/Documents/Git/ForkDSPH/DualSPHysics/src/source/JAppInfo.h
CMakeFiles/DualSPHysics5.0_linux64.dir/JWaveAwasZsurf.cpp.o: /home/prashant/Documents/Git/ForkDSPH/DualSPHysics/src/source/JAppInfoDef.h
CMakeFiles/DualSPHysics5.0_linux64.dir/JWaveAwasZsurf.cpp.o: /home/prashant/Documents/Git/ForkDSPH/DualSPHysics/src/source/JCellDivDataCpu.h
CMakeFiles/DualSPHysics5.0_linux64.dir/JWaveAwasZsurf.cpp.o: /home/prashant/Documents/Git/ForkDSPH/DualSPHysics/src/source/JCellDivDataGpu.h
CMakeFiles/DualSPHysics5.0_linux64.dir/JWaveAwasZsurf.cpp.o: /home/prashant/Documents/Git/ForkDSPH/DualSPHysics/src/source/JDsGaugeItem.h
CMakeFiles/DualSPHysics5.0_linux64.dir/JWaveAwasZsurf.cpp.o: /home/prashant/Documents/Git/ForkDSPH/DualSPHysics/src/source/JDsGaugeSystem.h
CMakeFiles/DualSPHysics5.0_linux64.dir/JWaveAwasZsurf.cpp.o: /home/prashant/Documents/Git/ForkDSPH/DualSPHysics/src/source/JLog2.h
CMakeFiles/DualSPHysics5.0_linux64.dir/JWaveAwasZsurf.cpp.o: /home/prashant/Documents/Git/ForkDSPH/DualSPHysics/src/source/JMeanValues.h
CMakeFiles/DualSPHysics5.0_linux64.dir/JWaveAwasZsurf.cpp.o: /home/prashant/Documents/Git/ForkDSPH/DualSPHysics/src/source/JNumexLibDef.h
CMakeFiles/DualSPHysics5.0_linux64.dir/JWaveAwasZsurf.cpp.o: /home/prashant/Documents/Git/ForkDSPH/DualSPHysics/src/source/JObject.h
CMakeFiles/DualSPHysics5.0_linux64.dir/JWaveAwasZsurf.cpp.o: /home/prashant/Documents/Git/ForkDSPH/DualSPHysics/src/source/JParticlesDef.h
CMakeFiles/DualSPHysics5.0_linux64.dir/JWaveAwasZsurf.cpp.o: /home/prashant/Documents/Git/ForkDSPH/DualSPHysics/src/source/JPeriodicDef.h
CMakeFiles/DualSPHysics5.0_linux64.dir/JWaveAwasZsurf.cpp.o: /home/prashant/Documents/Git/ForkDSPH/DualSPHysics/src/source/JSaveCsv2.h
CMakeFiles/DualSPHysics5.0_linux64.dir/JWaveAwasZsurf.cpp.o: /home/prashant/Documents/Git/ForkDSPH/DualSPHysics/src/source/JSphMk.h
CMakeFiles/DualSPHysics5.0_linux64.dir/JWaveAwasZsurf.cpp.o: /home/prashant/Documents/Git/ForkDSPH/DualSPHysics/src/source/JVtkLibDef.h
CMakeFiles/DualSPHysics5.0_linux64.dir/JWaveAwasZsurf.cpp.o: /home/prashant/Documents/Git/ForkDSPH/DualSPHysics/src/source/JWaveAwasZsurf.cpp
CMakeFiles/DualSPHysics5.0_linux64.dir/JWaveAwasZsurf.cpp.o: /home/prashant/Documents/Git/ForkDSPH/DualSPHysics/src/source/JWaveAwasZsurf.h
CMakeFiles/DualSPHysics5.0_linux64.dir/JWaveAwasZsurf.cpp.o: /home/prashant/Documents/Git/ForkDSPH/DualSPHysics/src/source/JXml.h
CMakeFiles/DualSPHysics5.0_linux64.dir/JWaveAwasZsurf.cpp.o: /home/prashant/Documents/Git/ForkDSPH/DualSPHysics/src/source/OmpDefs.h
CMakeFiles/DualSPHysics5.0_linux64.dir/JWaveAwasZsurf.cpp.o: /home/prashant/Documents/Git/ForkDSPH/DualSPHysics/src/source/TypesDef.h
CMakeFiles/DualSPHysics5.0_linux64.dir/JWaveAwasZsurf.cpp.o: /home/prashant/Documents/Git/ForkDSPH/DualSPHysics/src/source/tinystr.h
CMakeFiles/DualSPHysics5.0_linux64.dir/JWaveAwasZsurf.cpp.o: /home/prashant/Documents/Git/ForkDSPH/DualSPHysics/src/source/tinyxml.h
CMakeFiles/DualSPHysics5.0_linux64.dir/JWaveAwasZsurf.cpp.o: /usr/local/cuda-10.1/include/builtin_types.h
CMakeFiles/DualSPHysics5.0_linux64.dir/JWaveAwasZsurf.cpp.o: /usr/local/cuda-10.1/include/crt/host_defines.h
CMakeFiles/DualSPHysics5.0_linux64.dir/JWaveAwasZsurf.cpp.o: /usr/local/cuda-10.1/include/cuda_device_runtime_api.h
CMakeFiles/DualSPHysics5.0_linux64.dir/JWaveAwasZsurf.cpp.o: /usr/local/cuda-10.1/include/cuda_runtime_api.h
CMakeFiles/DualSPHysics5.0_linux64.dir/JWaveAwasZsurf.cpp.o: /usr/local/cuda-10.1/include/device_types.h
CMakeFiles/DualSPHysics5.0_linux64.dir/JWaveAwasZsurf.cpp.o: /usr/local/cuda-10.1/include/driver_types.h
CMakeFiles/DualSPHysics5.0_linux64.dir/JWaveAwasZsurf.cpp.o: /usr/local/cuda-10.1/include/surface_types.h
CMakeFiles/DualSPHysics5.0_linux64.dir/JWaveAwasZsurf.cpp.o: /usr/local/cuda-10.1/include/texture_types.h
CMakeFiles/DualSPHysics5.0_linux64.dir/JWaveAwasZsurf.cpp.o: /usr/local/cuda-10.1/include/vector_types.h

CMakeFiles/DualSPHysics5.0_linux64.dir/JWaveSpectrumGpu.cpp.o: /home/prashant/Documents/Git/ForkDSPH/DualSPHysics/src/source/JObject.h
CMakeFiles/DualSPHysics5.0_linux64.dir/JWaveSpectrumGpu.cpp.o: /home/prashant/Documents/Git/ForkDSPH/DualSPHysics/src/source/JWaveOrder2_ker.h
CMakeFiles/DualSPHysics5.0_linux64.dir/JWaveSpectrumGpu.cpp.o: /home/prashant/Documents/Git/ForkDSPH/DualSPHysics/src/source/JWaveSpectrumGpu.cpp
CMakeFiles/DualSPHysics5.0_linux64.dir/JWaveSpectrumGpu.cpp.o: /home/prashant/Documents/Git/ForkDSPH/DualSPHysics/src/source/JWaveSpectrumGpu.h
CMakeFiles/DualSPHysics5.0_linux64.dir/JWaveSpectrumGpu.cpp.o: /home/prashant/Documents/Git/ForkDSPH/DualSPHysics/src/source/TypesDef.h
CMakeFiles/DualSPHysics5.0_linux64.dir/JWaveSpectrumGpu.cpp.o: /usr/local/cuda-10.1/include/builtin_types.h
CMakeFiles/DualSPHysics5.0_linux64.dir/JWaveSpectrumGpu.cpp.o: /usr/local/cuda-10.1/include/crt/host_defines.h
CMakeFiles/DualSPHysics5.0_linux64.dir/JWaveSpectrumGpu.cpp.o: /usr/local/cuda-10.1/include/cuda_device_runtime_api.h
CMakeFiles/DualSPHysics5.0_linux64.dir/JWaveSpectrumGpu.cpp.o: /usr/local/cuda-10.1/include/cuda_runtime_api.h
CMakeFiles/DualSPHysics5.0_linux64.dir/JWaveSpectrumGpu.cpp.o: /usr/local/cuda-10.1/include/device_types.h
CMakeFiles/DualSPHysics5.0_linux64.dir/JWaveSpectrumGpu.cpp.o: /usr/local/cuda-10.1/include/driver_types.h
CMakeFiles/DualSPHysics5.0_linux64.dir/JWaveSpectrumGpu.cpp.o: /usr/local/cuda-10.1/include/surface_types.h
CMakeFiles/DualSPHysics5.0_linux64.dir/JWaveSpectrumGpu.cpp.o: /usr/local/cuda-10.1/include/texture_types.h
CMakeFiles/DualSPHysics5.0_linux64.dir/JWaveSpectrumGpu.cpp.o: /usr/local/cuda-10.1/include/vector_types.h

CMakeFiles/DualSPHysics5.0_linux64.dir/JXml.cpp.o: /home/prashant/Documents/Git/ForkDSPH/DualSPHysics/src/source/Functions.h
CMakeFiles/DualSPHysics5.0_linux64.dir/JXml.cpp.o: /home/prashant/Documents/Git/ForkDSPH/DualSPHysics/src/source/JNumexLib.h
CMakeFiles/DualSPHysics5.0_linux64.dir/JXml.cpp.o: /home/prashant/Documents/Git/ForkDSPH/DualSPHysics/src/source/JNumexLibDef.h
CMakeFiles/DualSPHysics5.0_linux64.dir/JXml.cpp.o: /home/prashant/Documents/Git/ForkDSPH/DualSPHysics/src/source/JNumexLibUndef.h
CMakeFiles/DualSPHysics5.0_linux64.dir/JXml.cpp.o: /home/prashant/Documents/Git/ForkDSPH/DualSPHysics/src/source/JObject.h
CMakeFiles/DualSPHysics5.0_linux64.dir/JXml.cpp.o: /home/prashant/Documents/Git/ForkDSPH/DualSPHysics/src/source/JXml.cpp
CMakeFiles/DualSPHysics5.0_linux64.dir/JXml.cpp.o: /home/prashant/Documents/Git/ForkDSPH/DualSPHysics/src/source/JXml.h
CMakeFiles/DualSPHysics5.0_linux64.dir/JXml.cpp.o: /home/prashant/Documents/Git/ForkDSPH/DualSPHysics/src/source/TypesDef.h
CMakeFiles/DualSPHysics5.0_linux64.dir/JXml.cpp.o: /home/prashant/Documents/Git/ForkDSPH/DualSPHysics/src/source/tinystr.h
CMakeFiles/DualSPHysics5.0_linux64.dir/JXml.cpp.o: /home/prashant/Documents/Git/ForkDSPH/DualSPHysics/src/source/tinyxml.h

CMakeFiles/DualSPHysics5.0_linux64.dir/main.cpp.o: /home/prashant/Documents/Git/ForkDSPH/DualSPHysics/src/source/DualSphDef.h
CMakeFiles/DualSPHysics5.0_linux64.dir/main.cpp.o: /home/prashant/Documents/Git/ForkDSPH/DualSPHysics/src/source/FunSphKernelDef.h
CMakeFiles/DualSPHysics5.0_linux64.dir/main.cpp.o: /home/prashant/Documents/Git/ForkDSPH/DualSPHysics/src/source/Functions.h
CMakeFiles/DualSPHysics5.0_linux64.dir/main.cpp.o: /home/prashant/Documents/Git/ForkDSPH/DualSPHysics/src/source/JAppInfo.h
CMakeFiles/DualSPHysics5.0_linux64.dir/main.cpp.o: /home/prashant/Documents/Git/ForkDSPH/DualSPHysics/src/source/JAppInfoDef.h
CMakeFiles/DualSPHysics5.0_linux64.dir/main.cpp.o: /home/prashant/Documents/Git/ForkDSPH/DualSPHysics/src/source/JCellDivDataCpu.h
CMakeFiles/DualSPHysics5.0_linux64.dir/main.cpp.o: /home/prashant/Documents/Git/ForkDSPH/DualSPHysics/src/source/JCellDivDataGpu.h
CMakeFiles/DualSPHysics5.0_linux64.dir/main.cpp.o: /home/prashant/Documents/Git/ForkDSPH/DualSPHysics/src/source/JCfgRunBase.h
CMakeFiles/DualSPHysics5.0_linux64.dir/main.cpp.o: /home/prashant/Documents/Git/ForkDSPH/DualSPHysics/src/source/JException.h
CMakeFiles/DualSPHysics5.0_linux64.dir/main.cpp.o: /home/prashant/Documents/Git/ForkDSPH/DualSPHysics/src/source/JLog2.h
CMakeFiles/DualSPHysics5.0_linux64.dir/main.cpp.o: /home/prashant/Documents/Git/ForkDSPH/DualSPHysics/src/source/JNumexLibDef.h
CMakeFiles/DualSPHysics5.0_linux64.dir/main.cpp.o: /home/prashant/Documents/Git/ForkDSPH/DualSPHysics/src/source/JObject.h
CMakeFiles/DualSPHysics5.0_linux64.dir/main.cpp.o: /home/prashant/Documents/Git/ForkDSPH/DualSPHysics/src/source/JParticlesDef.h
CMakeFiles/DualSPHysics5.0_linux64.dir/main.cpp.o: /home/prashant/Documents/Git/ForkDSPH/DualSPHysics/src/source/JPeriodicDef.h
CMakeFiles/DualSPHysics5.0_linux64.dir/main.cpp.o: /home/prashant/Documents/Git/ForkDSPH/DualSPHysics/src/source/JSph.h
CMakeFiles/DualSPHysics5.0_linux64.dir/main.cpp.o: /home/prashant/Documents/Git/ForkDSPH/DualSPHysics/src/source/JSphCfgRun.h
CMakeFiles/DualSPHysics5.0_linux64.dir/main.cpp.o: /home/prashant/Documents/Git/ForkDSPH/DualSPHysics/src/source/JSphCpu.h
CMakeFiles/DualSPHysics5.0_linux64.dir/main.cpp.o: /home/prashant/Documents/Git/ForkDSPH/DualSPHysics/src/source/JSphCpuSingle.h
CMakeFiles/DualSPHysics5.0_linux64.dir/main.cpp.o: /home/prashant/Documents/Git/ForkDSPH/DualSPHysics/src/source/JSphGpu.h
CMakeFiles/DualSPHysics5.0_linux64.dir/main.cpp.o: /home/prashant/Documents/Git/ForkDSPH/DualSPHysics/src/source/JSphGpuSingle.h
CMakeFiles/DualSPHysics5.0_linux64.dir/main.cpp.o: /home/prashant/Documents/Git/ForkDSPH/DualSPHysics/src/source/JSphTimersCpu.h
CMakeFiles/DualSPHysics5.0_linux64.dir/main.cpp.o: /home/prashant/Documents/Git/ForkDSPH/DualSPHysics/src/source/JSphTimersGpu.h
CMakeFiles/DualSPHysics5.0_linux64.dir/main.cpp.o: /home/prashant/Documents/Git/ForkDSPH/DualSPHysics/src/source/JTimer.h
CMakeFiles/DualSPHysics5.0_linux64.dir/main.cpp.o: /home/prashant/Documents/Git/ForkDSPH/DualSPHysics/src/source/JTimerCuda.h
CMakeFiles/DualSPHysics5.0_linux64.dir/main.cpp.o: /home/prashant/Documents/Git/ForkDSPH/DualSPHysics/src/source/JVtkLibDef.h
CMakeFiles/DualSPHysics5.0_linux64.dir/main.cpp.o: /home/prashant/Documents/Git/ForkDSPH/DualSPHysics/src/source/OmpDefs.h
CMakeFiles/DualSPHysics5.0_linux64.dir/main.cpp.o: /home/prashant/Documents/Git/ForkDSPH/DualSPHysics/src/source/TypesDef.h
CMakeFiles/DualSPHysics5.0_linux64.dir/main.cpp.o: /home/prashant/Documents/Git/ForkDSPH/DualSPHysics/src/source/main.cpp
CMakeFiles/DualSPHysics5.0_linux64.dir/main.cpp.o: /usr/local/cuda-10.1/include/builtin_types.h
CMakeFiles/DualSPHysics5.0_linux64.dir/main.cpp.o: /usr/local/cuda-10.1/include/crt/host_defines.h
CMakeFiles/DualSPHysics5.0_linux64.dir/main.cpp.o: /usr/local/cuda-10.1/include/cuda_device_runtime_api.h
CMakeFiles/DualSPHysics5.0_linux64.dir/main.cpp.o: /usr/local/cuda-10.1/include/cuda_runtime_api.h
CMakeFiles/DualSPHysics5.0_linux64.dir/main.cpp.o: /usr/local/cuda-10.1/include/device_types.h
CMakeFiles/DualSPHysics5.0_linux64.dir/main.cpp.o: /usr/local/cuda-10.1/include/driver_types.h
CMakeFiles/DualSPHysics5.0_linux64.dir/main.cpp.o: /usr/local/cuda-10.1/include/surface_types.h
CMakeFiles/DualSPHysics5.0_linux64.dir/main.cpp.o: /usr/local/cuda-10.1/include/texture_types.h
CMakeFiles/DualSPHysics5.0_linux64.dir/main.cpp.o: /usr/local/cuda-10.1/include/vector_types.h

CMakeFiles/DualSPHysics5.0_linux64.dir/randomc.cpp.o: /home/prashant/Documents/Git/ForkDSPH/DualSPHysics/src/source/randomc.cpp
CMakeFiles/DualSPHysics5.0_linux64.dir/randomc.cpp.o: /home/prashant/Documents/Git/ForkDSPH/DualSPHysics/src/source/randomc.h

CMakeFiles/DualSPHysics5.0_linux64.dir/tinystr.cpp.o: /home/prashant/Documents/Git/ForkDSPH/DualSPHysics/src/source/tinystr.cpp
CMakeFiles/DualSPHysics5.0_linux64.dir/tinystr.cpp.o: /home/prashant/Documents/Git/ForkDSPH/DualSPHysics/src/source/tinystr.h

CMakeFiles/DualSPHysics5.0_linux64.dir/tinyxml.cpp.o: /home/prashant/Documents/Git/ForkDSPH/DualSPHysics/src/source/tinystr.h
CMakeFiles/DualSPHysics5.0_linux64.dir/tinyxml.cpp.o: /home/prashant/Documents/Git/ForkDSPH/DualSPHysics/src/source/tinyxml.cpp
CMakeFiles/DualSPHysics5.0_linux64.dir/tinyxml.cpp.o: /home/prashant/Documents/Git/ForkDSPH/DualSPHysics/src/source/tinyxml.h

CMakeFiles/DualSPHysics5.0_linux64.dir/tinyxmlerror.cpp.o: /home/prashant/Documents/Git/ForkDSPH/DualSPHysics/src/source/tinystr.h
CMakeFiles/DualSPHysics5.0_linux64.dir/tinyxmlerror.cpp.o: /home/prashant/Documents/Git/ForkDSPH/DualSPHysics/src/source/tinyxml.h
CMakeFiles/DualSPHysics5.0_linux64.dir/tinyxmlerror.cpp.o: /home/prashant/Documents/Git/ForkDSPH/DualSPHysics/src/source/tinyxmlerror.cpp

CMakeFiles/DualSPHysics5.0_linux64.dir/tinyxmlparser.cpp.o: /home/prashant/Documents/Git/ForkDSPH/DualSPHysics/src/source/tinystr.h
CMakeFiles/DualSPHysics5.0_linux64.dir/tinyxmlparser.cpp.o: /home/prashant/Documents/Git/ForkDSPH/DualSPHysics/src/source/tinyxml.h
CMakeFiles/DualSPHysics5.0_linux64.dir/tinyxmlparser.cpp.o: /home/prashant/Documents/Git/ForkDSPH/DualSPHysics/src/source/tinyxmlparser.cpp

